version 3
run General-0-20260221-17:08:26-13535
attr configname General
attr datetime 20260221-17:08:26
attr datetimef 20260221-170826
attr experiment General
attr inifile omnetpp.ini
attr iterationvars ""
attr iterationvarsd ""
attr iterationvarsf ""
attr measurement ""
attr network ZrpTestNetworkBig
attr processid 13535
attr repetition 0
attr replication #0
attr resultdir results
attr runnumber 0
attr seedset 0
config image-path ../../../inet-4.5.4/images
config network ZrpTestNetworkBig
config sim-time-limit 100s
config *.configurator.addStaticRoutes false
config **.netmaskRoutes "\"\""
config **.arp.typename GlobalArp
config **.wlan[*].bitrate 24Mbps
config **.transmitter.power 1mW
config **.displayCommunicationRanges true
config *.source.numApps 2
config *.source.app[0].typename PingApp
config *.source.app[0].destAddr "\"destination\""
config *.source.app[0].startTime 10s
config *.source.app[0].sendInterval 1s
config *.source.app[0].printPing true
config *.source.app[1].typename sa_zrp.Zrp
config *.destination.numApps 1
config *.destination.app[0].typename sa_zrp.Zrp
config *.node*.numApps 1
config *.node*.app[0].typename sa_zrp.Zrp
config **.app[*].zoneRadius 2
config **.app[*].NDP_helloInterval 3s
config **.app[*].IARP_updateInterval 3s
config **.app[*].linkStateLifetime 6s
config **.app[*].interface "\"wlan0\""
config **.app[*].debugInterval 5s
config *.visualizer.*.numDataLinkVisualizers 3
config *.visualizer.*.dataLinkVisualizer[*].activityLevel "\"peer\""
config *.visualizer.*.dataLinkVisualizer[*].displayLinks true
config *.visualizer.*.dataLinkVisualizer[0].packetFilter "\"NDP_Hello\""
config *.visualizer.*.dataLinkVisualizer[0].*Color "\"green\""
config *.visualizer.*.dataLinkVisualizer[1].packetFilter "\"IARP_LinkStateUpdate\""
config *.visualizer.*.dataLinkVisualizer[1].*Color "\"orange\""
config *.visualizer.*.dataLinkVisualizer[2].packetFilter "\"ping*\""
config *.visualizer.*.dataLinkVisualizer[2].*Color "\"blue\""
config *.visualizer.*.networkRouteVisualizer[0].displayRoutes true
config *.visualizer.*.networkRouteVisualizer[0].packetFilter "\"*ping*\""
config *.visualizer.*.routingTableVisualizer[0].displayRoutingTables true
config *.visualizer.*.routingTableVisualizer[0].displayLabels false
config *.visualizer.*.routingTableVisualizer[0].displayRoutesIndividually false
config *.visualizer.*.routingTableVisualizer[0].lineShift 0
config *.visualizer.*.interfaceTableVisualizer[0].displayInterfaceTables true
config *.visualizer.*.interfaceTableVisualizer[0].format "\"%a/%l\""
config *.visualizer.*.mediumVisualizer[0].displaySignals true
config *.visualizer.*.mediumVisualizer[0].signalPropagationAnimationSpeed 500
config *.visualizer.*.infoVisualizer[0].displayInfos true
config *.visualizer.*.infoVisualizer[0].modules "\"*.*.app[0]\""
config *.visualizer.*.infoVisualizer[0].format "\"N:%p, Z:%t\""

vector 0 ZrpTestNetworkBig.source.lo[0].lo rcvdPkFromHl:vector(packetBytes) ETV
attr interpolationmode none
attr recordingmode vector(packetBytes)
attr source packetReceivedFromUpper
attr title "packets received from higher layer, packetBytes"
vector 1 ZrpTestNetworkBig.source.lo[0].lo passedUpPk:vector(packetBytes) ETV
attr interpolationmode none
attr recordingmode vector(packetBytes)
attr source packetSentToUpper
attr title "packets passed to higher layer, packetBytes"
vector 2 ZrpTestNetworkBig.source.lo[0] packetDropInterfaceDown:vector(packetBytes) ETV
attr interpolationmode none
attr recordingmode vector(packetBytes)
attr source packetDropReasonIsInterfaceDown(packetDropped)
attr title "packet drops: interface down, packetBytes"
vector 3 ZrpTestNetworkBig.source.lo[0] packetDropNoCarrier:vector(packetBytes) ETV
attr interpolationmode none
attr recordingmode vector(packetBytes)
attr source packetDropReasonIsNoCarrier(packetDropped)
attr title "packet drops: no carrier, packetBytes"
vector 4 ZrpTestNetworkBig.source.wlan[0].mac.dcf.channelAccess.pendingQueue queueLength:vector ETV
attr autoWarmupFilter false
attr interpolationmode sample-hold
attr recordingmode vector
attr source "warmup(atomic(constant0(packetPushEnded) + count(packetPushStarted) - count(packetPulled) - count(packetRemoved) - count(packetDropped)))"
attr title "queue length"
attr unit pk
vector 5 ZrpTestNetworkBig.source.wlan[0].mac.dcf.channelAccess.pendingQueue queueBitLength:vector ETV
attr autoWarmupFilter false
attr interpolationmode sample-hold
attr recordingmode vector
attr source "warmup(atomic(constant0(packetPushEnded) + sum(packetLength(packetPushStarted)) - sum(packetLength(packetPulled)) - sum(packetLength(packetRemoved)) - sum(packetLength(packetDropped))))"
attr title "queue bit length"
attr unit b
vector 6 ZrpTestNetworkBig.source.wlan[0].mac.dcf.channelAccess.pendingQueue queueingTime:vector ETV
attr interpolationmode none
attr recordingmode vector
attr source queueingTime(packetPulled)
attr title "queueing times"
attr unit s
vector 7 ZrpTestNetworkBig.source.wlan[0].mac.dcf.channelAccess.pendingQueue incomingPacketLengths:vector ETV
attr interpolationmode none
attr recordingmode vector
attr source packetLength(packetPushStarted)
attr title "incoming packet lengths"
attr unit b
vector 8 ZrpTestNetworkBig.source.wlan[0].mac.dcf.channelAccess.pendingQueue incomingDataRate:vector ETV
attr interpolationmode linear
attr recordingmode vector
attr source throughput(packetPushStarted)
attr title "incoming datarate"
attr unit bps
vector 9 ZrpTestNetworkBig.source.wlan[0].mac.dcf.channelAccess.pendingQueue outgoingPacketLengths:vector ETV
attr interpolationmode none
attr recordingmode vector
attr source packetLength(packetPulled)
attr title "outgoing packet lengths"
attr unit b
vector 10 ZrpTestNetworkBig.source.wlan[0].mac.dcf.channelAccess.pendingQueue outgoingDataRate:vector ETV
attr interpolationmode linear
attr recordingmode vector
attr source throughput(packetPulled)
attr title "outgoing datarate"
attr unit bps
vector 11 ZrpTestNetworkBig.source.wlan[0].mac.dcf.channelAccess.pendingQueue droppedPacketLengthsQueueOverflow:vector ETV
attr interpolationmode none
attr recordingmode vector
attr source packetLength(packetDropReasonIsQueueOverflow(packetDropped))
attr title "dropped packet lengths: queue overflow"
attr unit b
vector 12 ZrpTestNetworkBig.source.wlan[0].mac.dcf.channelAccess.pendingQueue flowQueueingTime:vector ETV
attr interpolationmode none
attr recordingmode vector
attr source queueingTime(demuxFlow(packetPulled))
attr title "flow queueing times"
attr unit s
vector 13 ZrpTestNetworkBig.source.wlan[0].mac.dcf.channelAccess.pendingQueue flowIncomingDataRate:vector ETV
attr interpolationmode linear
attr recordingmode vector
attr source throughput(flowPacketLength(demuxFlow(packetPushStarted)))
attr title "flow specific incoming data rate"
attr unit bps
vector 14 ZrpTestNetworkBig.source.wlan[0].mac.dcf.channelAccess.pendingQueue flowOutgoingDataRate:vector ETV
attr interpolationmode linear
attr recordingmode vector
attr source throughput(flowPacketLength(demuxFlow(packetPulled)))
attr title "flow specific outgoing data rate"
attr unit bps
vector 15 ZrpTestNetworkBig.source.wlan[0].mac.dcf.channelAccess.inProgressFrames queueingTime:vector ETV
attr interpolationmode none
attr recordingmode vector
attr source queueingTime(packetDequeued)
attr title "queueing times"
vector 16 ZrpTestNetworkBig.source.wlan[0].mac.dcf.channelAccess.inProgressFrames queueLength:vector ETV
attr autoWarmupFilter false
attr interpolationmode sample-hold
attr recordingmode vector
attr source "warmup(count(packetEnqueued) - count(packetDequeued))"
attr title "queue length"
vector 17 ZrpTestNetworkBig.source.wlan[0].mac.dcf.channelAccess.contention backoffPeriodGenerated:vector ETV
attr interpolationmode none
attr recordingmode vector
attr title "backoff periods"
vector 18 ZrpTestNetworkBig.source.wlan[0].mac.dcf.channelAccess.contention backoffActive:vector ETV
attr autoWarmupFilter false
attr interpolationmode sample-hold
attr recordingmode vector
attr source warmup(count(backoffStarted)-count(backoffStopped))
attr title "backoff active"
vector 19 ZrpTestNetworkBig.source.wlan[0].mac.dcf.channelAccess.contention stateChanged:vector ETV
attr enum IDLE,DEFER,IFS_AND_BACKOFF
attr interpolationmode none
attr recordingmode vector
attr title "contention state changed"
attr type enum
vector 20 ZrpTestNetworkBig.source.wlan[0].mac.dcf.recipientMacDataService packetDropDuplicateDetected:vector(packetBytes) ETV
attr interpolationmode none
attr recordingmode vector(packetBytes)
attr source packetDropReasonIsDuplicateDetected(packetDropped)
attr title "packet drops: duplicate detected, packetBytes"
vector 21 ZrpTestNetworkBig.source.wlan[0].mac.dcf.recoveryProcedure contentionWindowChanged:vector ETV
attr interpolationmode sample-hold
attr recordingmode vector
attr title "contention window"
vector 22 ZrpTestNetworkBig.source.wlan[0].mac.dcf packetSentToPeer:vector(packetBytes) ETV
attr interpolationmode none
attr recordingmode vector(packetBytes)
attr title "packets sent, packetBytes"
vector 23 ZrpTestNetworkBig.source.wlan[0].mac.dcf packetSentToPeerUnicast:vector(packetBytes) ETV
attr interpolationmode none
attr recordingmode vector(packetBytes)
attr source ieee80211Unicast(packetSentToPeer)
attr title "packets sent: unicast, packetBytes"
vector 24 ZrpTestNetworkBig.source.wlan[0].mac.dcf packetSentToPeerMulticast:vector(packetBytes) ETV
attr interpolationmode none
attr recordingmode vector(packetBytes)
attr source ieee80211Multicast(packetSentToPeer)
attr title "packets sent: multicast, packetBytes"
vector 25 ZrpTestNetworkBig.source.wlan[0].mac.dcf packetSentToPeerBroadcast:vector(packetBytes) ETV
attr interpolationmode none
attr recordingmode vector(packetBytes)
attr source ieee80211Broadcast(packetSentToPeer)
attr title "packets sent: broadcast , packetBytes"
vector 26 ZrpTestNetworkBig.source.wlan[0].mac.dcf packetSentToPeerWithRetry:vector(packetBytes) ETV
attr interpolationmode none
attr recordingmode vector(packetBytes)
attr source ieee80211Retry(packetSentToPeer)
attr title "packets sent: with retry, packetBytes"
vector 27 ZrpTestNetworkBig.source.wlan[0].mac.dcf packetSentToPeerWithoutRetry:vector(packetBytes) ETV
attr interpolationmode none
attr recordingmode vector(packetBytes)
attr source ieee80211NotRetry(packetSentToPeer)
attr title "packets sent: without retry, packetBytes"
vector 28 ZrpTestNetworkBig.source.wlan[0].mac.dcf packetReceivedFromPeer:vector(packetBytes) ETV
attr interpolationmode none
attr recordingmode vector(packetBytes)
attr title "packets received, packetBytes"
vector 29 ZrpTestNetworkBig.source.wlan[0].mac.dcf packetReceivedFromPeerUnicast:vector(packetBytes) ETV
attr interpolationmode none
attr recordingmode vector(packetBytes)
attr source ieee80211Unicast(packetReceivedFromPeer)
attr title "packets received: unicast, packetBytes"
vector 30 ZrpTestNetworkBig.source.wlan[0].mac.dcf packetReceivedFromPeerMulticast:vector(packetBytes) ETV
attr interpolationmode none
attr recordingmode vector(packetBytes)
attr source ieee80211Multicast(packetReceivedFromPeer)
attr title "packets received: multicast, packetBytes"
vector 31 ZrpTestNetworkBig.source.wlan[0].mac.dcf packetReceivedFromPeerBroadcast:vector(packetBytes) ETV
attr interpolationmode none
attr recordingmode vector(packetBytes)
attr source ieee80211Broadcast(packetReceivedFromPeer)
attr title "packets received: broadcast, packetBytes"
vector 32 ZrpTestNetworkBig.source.wlan[0].mac.dcf packetReceivedFromPeerWithRetry:vector(packetBytes) ETV
attr interpolationmode none
attr recordingmode vector(packetBytes)
attr source ieee80211Retry(packetReceivedFromPeer)
attr title "packets received: with retry, packetBytes"
vector 33 ZrpTestNetworkBig.source.wlan[0].mac.dcf packetReceivedFromPeerWithoutRetry:vector(packetBytes) ETV
attr interpolationmode none
attr recordingmode vector(packetBytes)
attr source ieee80211NotRetry(packetReceivedFromPeer)
attr title "packets received: without retry, packetBytes"
vector 34 ZrpTestNetworkBig.source.wlan[0].mac.dcf packetDrop:vector(packetBytes) ETV
attr interpolationmode none
attr recordingmode vector(packetBytes)
attr source packetDropped
attr title "packet drops, packetBytes"
vector 35 ZrpTestNetworkBig.source.wlan[0].mac.dcf packetDropNotAddressedToUs:vector(packetBytes) ETV
attr interpolationmode none
attr recordingmode vector(packetBytes)
attr source packetDropReasonIsNotAddressedToUs(packetDropped)
attr title "packet drops: not addressed to us, packetBytes"
vector 36 ZrpTestNetworkBig.source.wlan[0].mac.dcf packetDropQueueOverflow:vector(packetBytes) ETV
attr interpolationmode none
attr recordingmode vector(packetBytes)
attr source packetDropReasonIsQueueOverflow(packetDropped)
attr title "packet drops: queue overflow, packetBytes"
vector 37 ZrpTestNetworkBig.source.wlan[0].mac.dcf packetDropRetryLimitReached:vector(packetBytes) ETV
attr interpolationmode none
attr recordingmode vector(packetBytes)
attr source packetDropReasonIsRetryLimitReached(packetDropped)
attr title "packet drops: retry limit reached, packetBytes"
vector 38 ZrpTestNetworkBig.source.wlan[0].mac.dcf frameSequenceActive:vector ETV
attr autoWarmupFilter false
attr interpolationmode sample-hold
attr recordingmode vector
attr source warmup(count(frameSequenceStarted)-count(frameSequenceFinished))
attr title "frame sequence active"
vector 39 ZrpTestNetworkBig.source.wlan[0].mac.dcf datarateSelected:vector ETV
attr interpolationmode none
attr recordingmode vector
attr title "datarates selected"
vector 40 ZrpTestNetworkBig.source.wlan[0].mac.rx nav:vector ETV
attr interpolationmode linear
attr recordingmode vector
attr source navChanged
attr title "network allocation vector"
vector 41 ZrpTestNetworkBig.source.wlan[0].mac packetSentToUpper:vector(packetBytes) ETV
attr interpolationmode none
attr recordingmode vector(packetBytes)
attr title "packets sent to upper layer, packetBytes"
vector 42 ZrpTestNetworkBig.source.wlan[0].mac packetSentToLower:vector(packetBytes) ETV
attr interpolationmode none
attr recordingmode vector(packetBytes)
attr title "packets sent to lower layer, packetBytes"
vector 43 ZrpTestNetworkBig.source.wlan[0].mac packetReceivedFromUpper:vector(packetBytes) ETV
attr interpolationmode none
attr recordingmode vector(packetBytes)
attr title "packets received from upper layer, packetBytes"
vector 44 ZrpTestNetworkBig.source.wlan[0].mac packetReceivedFromLower:vector(packetBytes) ETV
attr interpolationmode none
attr recordingmode vector(packetBytes)
attr title "packets received from lower layer, packetBytes"
vector 45 ZrpTestNetworkBig.source.wlan[0].mac packetDrop:vector(packetBytes) ETV
attr interpolationmode none
attr recordingmode vector(packetBytes)
attr source packetDropped
attr title "packet drops, packetBytes"
vector 46 ZrpTestNetworkBig.source.wlan[0].mac packetDropIncorrectlyReceived:vector(packetBytes) ETV
attr interpolationmode none
attr recordingmode vector(packetBytes)
attr source packetDropReasonIsIncorrectlyReceived(packetDropped)
attr title "packet drops: incorrectly received, packetBytes"
vector 47 ZrpTestNetworkBig.source.wlan[0].mac packetDropNotAddressedToUs:vector(packetBytes) ETV
attr interpolationmode none
attr recordingmode vector(packetBytes)
attr source packetDropReasonIsNotAddressedToUs(packetDropped)
attr title "packet drops: not addressed to us, packetBytes"
vector 48 ZrpTestNetworkBig.source.wlan[0].mac packetDropQueueOverflow:vector(packetBytes) ETV
attr interpolationmode none
attr recordingmode vector(packetBytes)
attr source packetDropReasonIsQueueOverflow(packetDropped)
attr title "packet drops: queue overflow, packetBytes"
vector 49 ZrpTestNetworkBig.source.wlan[0].mac packetDropRetryLimitReached:vector(packetBytes) ETV
attr interpolationmode none
attr recordingmode vector(packetBytes)
attr source packetDropReasonIsRetryLimitReached(packetDropped)
attr title "packet drops: retry limit reached, packetBytes"
vector 50 ZrpTestNetworkBig.source.wlan[0].mac packetDropDuplicateDetected:vector(packetBytes) ETV
attr interpolationmode none
attr recordingmode vector(packetBytes)
attr source packetDropReasonIsDuplicateDetected(packetDropped)
attr title "packet drops: duplicate detected, packetBytes"
vector 51 ZrpTestNetworkBig.source.wlan[0].mac packetDropOther:vector(packetBytes) ETV
attr interpolationmode none
attr recordingmode vector(packetBytes)
attr source packetDropReasonIsOther(packetDropped)
attr title "packet drops: other, packetBytes"
vector 52 ZrpTestNetworkBig.source.wlan[0].radio radioMode:vector ETV
attr interpolationmode sample-hold
attr recordingmode vector
attr source radioModeChanged
attr title "Radio mode"
vector 53 ZrpTestNetworkBig.source.wlan[0].radio receptionState:vector ETV
attr interpolationmode sample-hold
attr recordingmode vector
attr source receptionStateChanged
attr title "Radio reception state"
vector 54 ZrpTestNetworkBig.source.wlan[0].radio transmissionState:vector ETV
attr interpolationmode sample-hold
attr recordingmode vector
attr source transmissionStateChanged
attr title "Radio transmission state"
vector 55 ZrpTestNetworkBig.source.wlan[0].radio radioChannel:vector ETV
attr interpolationmode sample-hold
attr recordingmode vector
attr source radioChannelChanged
attr title "Radio channel"
vector 56 ZrpTestNetworkBig.source.wlan[0] packetDropInterfaceDown:vector(packetBytes) ETV
attr interpolationmode none
attr recordingmode vector(packetBytes)
attr source packetDropReasonIsInterfaceDown(packetDropped)
attr title "packet drops: interface down, packetBytes"
vector 57 ZrpTestNetworkBig.source.wlan[0] packetDropNoCarrier:vector(packetBytes) ETV
attr interpolationmode none
attr recordingmode vector(packetBytes)
attr source packetDropReasonIsNoCarrier(packetDropped)
attr title "packet drops: no carrier, packetBytes"
vector 58 ZrpTestNetworkBig.source.ipv4.ip packetDropAddressResolutionFailed:vector(packetBytes) ETV
attr interpolationmode none
attr recordingmode vector(packetBytes)
attr source packetDropReasonIsAddressResolutionFailed(packetDropped)
attr title "packet drop: address resolution failed, packetBytes"
vector 59 ZrpTestNetworkBig.source.ipv4.ip packetDropHopLimitReached:vector(packetBytes) ETV
attr interpolationmode none
attr recordingmode vector(packetBytes)
attr source packetDropReasonIsHopLimitReached(packetDropped)
attr title "packet drop: hop limit reached, packetBytes"
vector 60 ZrpTestNetworkBig.source.ipv4.ip packetDropForwardingDisabled:vector(packetBytes) ETV
attr interpolationmode none
attr recordingmode vector(packetBytes)
attr source packetDropReasonIsForwardingDisabled(packetDropped)
attr title "packet drop: forwarding disabled, packetBytes"
vector 61 ZrpTestNetworkBig.source.ipv4.ip packetDropNoInterfaceFound:vector(packetBytes) ETV
attr interpolationmode none
attr recordingmode vector(packetBytes)
attr source packetDropReasonIsNoInterfaceFound(packetDropped)
attr title "packet drop: no interface found, packetBytes"
vector 62 ZrpTestNetworkBig.source.ipv4.ip packetDropNoRouteFound:vector(packetBytes) ETV
attr interpolationmode none
attr recordingmode vector(packetBytes)
attr source packetDropReasonIsNoRouteFound(packetDropped)
attr title "packet drop: no route found, packetBytes"
vector 63 ZrpTestNetworkBig.source.ipv4.ip packetDropUndefined:vector(packetBytes) ETV
attr interpolationmode none
attr recordingmode vector(packetBytes)
attr source packetDropReasonIsUndefined(packetDropped)
attr title "packet drop: undefined, packetBytes"
vector 64 ZrpTestNetworkBig.source.udp packetSent:vector(packetBytes) ETV
attr interpolationmode none
attr recordingmode vector(packetBytes)
attr source packetSent
attr title "packets sent, packetBytes"
vector 65 ZrpTestNetworkBig.source.udp packetReceived:vector(packetBytes) ETV
attr interpolationmode none
attr recordingmode vector(packetBytes)
attr source packetReceived
attr title "packets received, packetBytes"
vector 66 ZrpTestNetworkBig.source.udp passedUpPk:vector(count) ETV
attr interpolationmode none
attr recordingmode vector(count)
attr source packetSentToUpper
attr title "packets passed up, count"
vector 67 ZrpTestNetworkBig.source.udp droppedPkWrongPort:vector(count) ETV
attr interpolationmode none
attr recordingmode vector(count)
attr source packetDropReasonIsNoPortFound(packetDropped)
attr title "packets dropped (wrong port), count"
vector 68 ZrpTestNetworkBig.source.udp droppedPkBadChecksum:vector(count) ETV
attr interpolationmode none
attr recordingmode vector(count)
attr source packetDropReasonIsIncorrectlyReceived(packetDropped)
attr title "packets dropped (checksum error), count"
vector 69 ZrpTestNetworkBig.source.app[0] rtt:vector ETV
attr interpolationmode none
attr recordingmode vector
attr title "ping round-trip time"
attr unit s
vector 70 ZrpTestNetworkBig.source.app[0] numLost:vector ETV
attr interpolationmode none
attr recordingmode vector
attr title "pings lost"
vector 71 ZrpTestNetworkBig.source.app[0] numOutOfOrderArrivals:vector ETV
attr interpolationmode none
attr recordingmode vector
attr title "ping out-of-order arrivals"
vector 72 ZrpTestNetworkBig.source.app[0] pingTxSeq:vector ETV
attr interpolationmode none
attr recordingmode vector
attr title "ping tx seq"
vector 73 ZrpTestNetworkBig.source.app[0] pingRxSeq:vector ETV
attr interpolationmode none
attr recordingmode vector
attr title "ping rx seq"
vector 74 ZrpTestNetworkBig.destination.lo[0].lo rcvdPkFromHl:vector(packetBytes) ETV
attr interpolationmode none
attr recordingmode vector(packetBytes)
attr source packetReceivedFromUpper
attr title "packets received from higher layer, packetBytes"
vector 75 ZrpTestNetworkBig.destination.lo[0].lo passedUpPk:vector(packetBytes) ETV
attr interpolationmode none
attr recordingmode vector(packetBytes)
attr source packetSentToUpper
attr title "packets passed to higher layer, packetBytes"
vector 76 ZrpTestNetworkBig.destination.lo[0] packetDropInterfaceDown:vector(packetBytes) ETV
attr interpolationmode none
attr recordingmode vector(packetBytes)
attr source packetDropReasonIsInterfaceDown(packetDropped)
attr title "packet drops: interface down, packetBytes"
vector 77 ZrpTestNetworkBig.destination.lo[0] packetDropNoCarrier:vector(packetBytes) ETV
attr interpolationmode none
attr recordingmode vector(packetBytes)
attr source packetDropReasonIsNoCarrier(packetDropped)
attr title "packet drops: no carrier, packetBytes"
vector 78 ZrpTestNetworkBig.destination.wlan[0].mac.dcf.channelAccess.pendingQueue queueLength:vector ETV
attr autoWarmupFilter false
attr interpolationmode sample-hold
attr recordingmode vector
attr source "warmup(atomic(constant0(packetPushEnded) + count(packetPushStarted) - count(packetPulled) - count(packetRemoved) - count(packetDropped)))"
attr title "queue length"
attr unit pk
vector 79 ZrpTestNetworkBig.destination.wlan[0].mac.dcf.channelAccess.pendingQueue queueBitLength:vector ETV
attr autoWarmupFilter false
attr interpolationmode sample-hold
attr recordingmode vector
attr source "warmup(atomic(constant0(packetPushEnded) + sum(packetLength(packetPushStarted)) - sum(packetLength(packetPulled)) - sum(packetLength(packetRemoved)) - sum(packetLength(packetDropped))))"
attr title "queue bit length"
attr unit b
vector 80 ZrpTestNetworkBig.destination.wlan[0].mac.dcf.channelAccess.pendingQueue queueingTime:vector ETV
attr interpolationmode none
attr recordingmode vector
attr source queueingTime(packetPulled)
attr title "queueing times"
attr unit s
vector 81 ZrpTestNetworkBig.destination.wlan[0].mac.dcf.channelAccess.pendingQueue incomingPacketLengths:vector ETV
attr interpolationmode none
attr recordingmode vector
attr source packetLength(packetPushStarted)
attr title "incoming packet lengths"
attr unit b
vector 82 ZrpTestNetworkBig.destination.wlan[0].mac.dcf.channelAccess.pendingQueue incomingDataRate:vector ETV
attr interpolationmode linear
attr recordingmode vector
attr source throughput(packetPushStarted)
attr title "incoming datarate"
attr unit bps
vector 83 ZrpTestNetworkBig.destination.wlan[0].mac.dcf.channelAccess.pendingQueue outgoingPacketLengths:vector ETV
attr interpolationmode none
attr recordingmode vector
attr source packetLength(packetPulled)
attr title "outgoing packet lengths"
attr unit b
vector 84 ZrpTestNetworkBig.destination.wlan[0].mac.dcf.channelAccess.pendingQueue outgoingDataRate:vector ETV
attr interpolationmode linear
attr recordingmode vector
attr source throughput(packetPulled)
attr title "outgoing datarate"
attr unit bps
vector 85 ZrpTestNetworkBig.destination.wlan[0].mac.dcf.channelAccess.pendingQueue droppedPacketLengthsQueueOverflow:vector ETV
attr interpolationmode none
attr recordingmode vector
attr source packetLength(packetDropReasonIsQueueOverflow(packetDropped))
attr title "dropped packet lengths: queue overflow"
attr unit b
vector 86 ZrpTestNetworkBig.destination.wlan[0].mac.dcf.channelAccess.pendingQueue flowQueueingTime:vector ETV
attr interpolationmode none
attr recordingmode vector
attr source queueingTime(demuxFlow(packetPulled))
attr title "flow queueing times"
attr unit s
vector 87 ZrpTestNetworkBig.destination.wlan[0].mac.dcf.channelAccess.pendingQueue flowIncomingDataRate:vector ETV
attr interpolationmode linear
attr recordingmode vector
attr source throughput(flowPacketLength(demuxFlow(packetPushStarted)))
attr title "flow specific incoming data rate"
attr unit bps
vector 88 ZrpTestNetworkBig.destination.wlan[0].mac.dcf.channelAccess.pendingQueue flowOutgoingDataRate:vector ETV
attr interpolationmode linear
attr recordingmode vector
attr source throughput(flowPacketLength(demuxFlow(packetPulled)))
attr title "flow specific outgoing data rate"
attr unit bps
vector 89 ZrpTestNetworkBig.destination.wlan[0].mac.dcf.channelAccess.inProgressFrames queueingTime:vector ETV
attr interpolationmode none
attr recordingmode vector
attr source queueingTime(packetDequeued)
attr title "queueing times"
vector 90 ZrpTestNetworkBig.destination.wlan[0].mac.dcf.channelAccess.inProgressFrames queueLength:vector ETV
attr autoWarmupFilter false
attr interpolationmode sample-hold
attr recordingmode vector
attr source "warmup(count(packetEnqueued) - count(packetDequeued))"
attr title "queue length"
vector 91 ZrpTestNetworkBig.destination.wlan[0].mac.dcf.channelAccess.contention backoffPeriodGenerated:vector ETV
attr interpolationmode none
attr recordingmode vector
attr title "backoff periods"
vector 92 ZrpTestNetworkBig.destination.wlan[0].mac.dcf.channelAccess.contention backoffActive:vector ETV
attr autoWarmupFilter false
attr interpolationmode sample-hold
attr recordingmode vector
attr source warmup(count(backoffStarted)-count(backoffStopped))
attr title "backoff active"
vector 93 ZrpTestNetworkBig.destination.wlan[0].mac.dcf.channelAccess.contention stateChanged:vector ETV
attr enum IDLE,DEFER,IFS_AND_BACKOFF
attr interpolationmode none
attr recordingmode vector
attr title "contention state changed"
attr type enum
vector 94 ZrpTestNetworkBig.destination.wlan[0].mac.dcf.recipientMacDataService packetDropDuplicateDetected:vector(packetBytes) ETV
attr interpolationmode none
attr recordingmode vector(packetBytes)
attr source packetDropReasonIsDuplicateDetected(packetDropped)
attr title "packet drops: duplicate detected, packetBytes"
vector 95 ZrpTestNetworkBig.destination.wlan[0].mac.dcf.recoveryProcedure contentionWindowChanged:vector ETV
attr interpolationmode sample-hold
attr recordingmode vector
attr title "contention window"
vector 96 ZrpTestNetworkBig.destination.wlan[0].mac.dcf packetSentToPeer:vector(packetBytes) ETV
attr interpolationmode none
attr recordingmode vector(packetBytes)
attr title "packets sent, packetBytes"
vector 97 ZrpTestNetworkBig.destination.wlan[0].mac.dcf packetSentToPeerUnicast:vector(packetBytes) ETV
attr interpolationmode none
attr recordingmode vector(packetBytes)
attr source ieee80211Unicast(packetSentToPeer)
attr title "packets sent: unicast, packetBytes"
vector 98 ZrpTestNetworkBig.destination.wlan[0].mac.dcf packetSentToPeerMulticast:vector(packetBytes) ETV
attr interpolationmode none
attr recordingmode vector(packetBytes)
attr source ieee80211Multicast(packetSentToPeer)
attr title "packets sent: multicast, packetBytes"
vector 99 ZrpTestNetworkBig.destination.wlan[0].mac.dcf packetSentToPeerBroadcast:vector(packetBytes) ETV
attr interpolationmode none
attr recordingmode vector(packetBytes)
attr source ieee80211Broadcast(packetSentToPeer)
attr title "packets sent: broadcast , packetBytes"
vector 100 ZrpTestNetworkBig.destination.wlan[0].mac.dcf packetSentToPeerWithRetry:vector(packetBytes) ETV
attr interpolationmode none
attr recordingmode vector(packetBytes)
attr source ieee80211Retry(packetSentToPeer)
attr title "packets sent: with retry, packetBytes"
vector 101 ZrpTestNetworkBig.destination.wlan[0].mac.dcf packetSentToPeerWithoutRetry:vector(packetBytes) ETV
attr interpolationmode none
attr recordingmode vector(packetBytes)
attr source ieee80211NotRetry(packetSentToPeer)
attr title "packets sent: without retry, packetBytes"
vector 102 ZrpTestNetworkBig.destination.wlan[0].mac.dcf packetReceivedFromPeer:vector(packetBytes) ETV
attr interpolationmode none
attr recordingmode vector(packetBytes)
attr title "packets received, packetBytes"
vector 103 ZrpTestNetworkBig.destination.wlan[0].mac.dcf packetReceivedFromPeerUnicast:vector(packetBytes) ETV
attr interpolationmode none
attr recordingmode vector(packetBytes)
attr source ieee80211Unicast(packetReceivedFromPeer)
attr title "packets received: unicast, packetBytes"
vector 104 ZrpTestNetworkBig.destination.wlan[0].mac.dcf packetReceivedFromPeerMulticast:vector(packetBytes) ETV
attr interpolationmode none
attr recordingmode vector(packetBytes)
attr source ieee80211Multicast(packetReceivedFromPeer)
attr title "packets received: multicast, packetBytes"
vector 105 ZrpTestNetworkBig.destination.wlan[0].mac.dcf packetReceivedFromPeerBroadcast:vector(packetBytes) ETV
attr interpolationmode none
attr recordingmode vector(packetBytes)
attr source ieee80211Broadcast(packetReceivedFromPeer)
attr title "packets received: broadcast, packetBytes"
vector 106 ZrpTestNetworkBig.destination.wlan[0].mac.dcf packetReceivedFromPeerWithRetry:vector(packetBytes) ETV
attr interpolationmode none
attr recordingmode vector(packetBytes)
attr source ieee80211Retry(packetReceivedFromPeer)
attr title "packets received: with retry, packetBytes"
vector 107 ZrpTestNetworkBig.destination.wlan[0].mac.dcf packetReceivedFromPeerWithoutRetry:vector(packetBytes) ETV
attr interpolationmode none
attr recordingmode vector(packetBytes)
attr source ieee80211NotRetry(packetReceivedFromPeer)
attr title "packets received: without retry, packetBytes"
vector 108 ZrpTestNetworkBig.destination.wlan[0].mac.dcf packetDrop:vector(packetBytes) ETV
attr interpolationmode none
attr recordingmode vector(packetBytes)
attr source packetDropped
attr title "packet drops, packetBytes"
vector 109 ZrpTestNetworkBig.destination.wlan[0].mac.dcf packetDropNotAddressedToUs:vector(packetBytes) ETV
attr interpolationmode none
attr recordingmode vector(packetBytes)
attr source packetDropReasonIsNotAddressedToUs(packetDropped)
attr title "packet drops: not addressed to us, packetBytes"
vector 110 ZrpTestNetworkBig.destination.wlan[0].mac.dcf packetDropQueueOverflow:vector(packetBytes) ETV
attr interpolationmode none
attr recordingmode vector(packetBytes)
attr source packetDropReasonIsQueueOverflow(packetDropped)
attr title "packet drops: queue overflow, packetBytes"
vector 111 ZrpTestNetworkBig.destination.wlan[0].mac.dcf packetDropRetryLimitReached:vector(packetBytes) ETV
attr interpolationmode none
attr recordingmode vector(packetBytes)
attr source packetDropReasonIsRetryLimitReached(packetDropped)
attr title "packet drops: retry limit reached, packetBytes"
vector 112 ZrpTestNetworkBig.destination.wlan[0].mac.dcf frameSequenceActive:vector ETV
attr autoWarmupFilter false
attr interpolationmode sample-hold
attr recordingmode vector
attr source warmup(count(frameSequenceStarted)-count(frameSequenceFinished))
attr title "frame sequence active"
vector 113 ZrpTestNetworkBig.destination.wlan[0].mac.dcf datarateSelected:vector ETV
attr interpolationmode none
attr recordingmode vector
attr title "datarates selected"
vector 114 ZrpTestNetworkBig.destination.wlan[0].mac.rx nav:vector ETV
attr interpolationmode linear
attr recordingmode vector
attr source navChanged
attr title "network allocation vector"
vector 115 ZrpTestNetworkBig.destination.wlan[0].mac packetSentToUpper:vector(packetBytes) ETV
attr interpolationmode none
attr recordingmode vector(packetBytes)
attr title "packets sent to upper layer, packetBytes"
vector 116 ZrpTestNetworkBig.destination.wlan[0].mac packetSentToLower:vector(packetBytes) ETV
attr interpolationmode none
attr recordingmode vector(packetBytes)
attr title "packets sent to lower layer, packetBytes"
vector 117 ZrpTestNetworkBig.destination.wlan[0].mac packetReceivedFromUpper:vector(packetBytes) ETV
attr interpolationmode none
attr recordingmode vector(packetBytes)
attr title "packets received from upper layer, packetBytes"
vector 118 ZrpTestNetworkBig.destination.wlan[0].mac packetReceivedFromLower:vector(packetBytes) ETV
attr interpolationmode none
attr recordingmode vector(packetBytes)
attr title "packets received from lower layer, packetBytes"
vector 119 ZrpTestNetworkBig.destination.wlan[0].mac packetDrop:vector(packetBytes) ETV
attr interpolationmode none
attr recordingmode vector(packetBytes)
attr source packetDropped
attr title "packet drops, packetBytes"
vector 120 ZrpTestNetworkBig.destination.wlan[0].mac packetDropIncorrectlyReceived:vector(packetBytes) ETV
attr interpolationmode none
attr recordingmode vector(packetBytes)
attr source packetDropReasonIsIncorrectlyReceived(packetDropped)
attr title "packet drops: incorrectly received, packetBytes"
vector 121 ZrpTestNetworkBig.destination.wlan[0].mac packetDropNotAddressedToUs:vector(packetBytes) ETV
attr interpolationmode none
attr recordingmode vector(packetBytes)
attr source packetDropReasonIsNotAddressedToUs(packetDropped)
attr title "packet drops: not addressed to us, packetBytes"
vector 122 ZrpTestNetworkBig.destination.wlan[0].mac packetDropQueueOverflow:vector(packetBytes) ETV
attr interpolationmode none
attr recordingmode vector(packetBytes)
attr source packetDropReasonIsQueueOverflow(packetDropped)
attr title "packet drops: queue overflow, packetBytes"
vector 123 ZrpTestNetworkBig.destination.wlan[0].mac packetDropRetryLimitReached:vector(packetBytes) ETV
attr interpolationmode none
attr recordingmode vector(packetBytes)
attr source packetDropReasonIsRetryLimitReached(packetDropped)
attr title "packet drops: retry limit reached, packetBytes"
vector 124 ZrpTestNetworkBig.destination.wlan[0].mac packetDropDuplicateDetected:vector(packetBytes) ETV
attr interpolationmode none
attr recordingmode vector(packetBytes)
attr source packetDropReasonIsDuplicateDetected(packetDropped)
attr title "packet drops: duplicate detected, packetBytes"
vector 125 ZrpTestNetworkBig.destination.wlan[0].mac packetDropOther:vector(packetBytes) ETV
attr interpolationmode none
attr recordingmode vector(packetBytes)
attr source packetDropReasonIsOther(packetDropped)
attr title "packet drops: other, packetBytes"
vector 126 ZrpTestNetworkBig.destination.wlan[0].radio radioMode:vector ETV
attr interpolationmode sample-hold
attr recordingmode vector
attr source radioModeChanged
attr title "Radio mode"
vector 127 ZrpTestNetworkBig.destination.wlan[0].radio receptionState:vector ETV
attr interpolationmode sample-hold
attr recordingmode vector
attr source receptionStateChanged
attr title "Radio reception state"
vector 128 ZrpTestNetworkBig.destination.wlan[0].radio transmissionState:vector ETV
attr interpolationmode sample-hold
attr recordingmode vector
attr source transmissionStateChanged
attr title "Radio transmission state"
vector 129 ZrpTestNetworkBig.destination.wlan[0].radio radioChannel:vector ETV
attr interpolationmode sample-hold
attr recordingmode vector
attr source radioChannelChanged
attr title "Radio channel"
vector 130 ZrpTestNetworkBig.destination.wlan[0] packetDropInterfaceDown:vector(packetBytes) ETV
attr interpolationmode none
attr recordingmode vector(packetBytes)
attr source packetDropReasonIsInterfaceDown(packetDropped)
attr title "packet drops: interface down, packetBytes"
vector 131 ZrpTestNetworkBig.destination.wlan[0] packetDropNoCarrier:vector(packetBytes) ETV
attr interpolationmode none
attr recordingmode vector(packetBytes)
attr source packetDropReasonIsNoCarrier(packetDropped)
attr title "packet drops: no carrier, packetBytes"
vector 132 ZrpTestNetworkBig.destination.ipv4.ip packetDropAddressResolutionFailed:vector(packetBytes) ETV
attr interpolationmode none
attr recordingmode vector(packetBytes)
attr source packetDropReasonIsAddressResolutionFailed(packetDropped)
attr title "packet drop: address resolution failed, packetBytes"
vector 133 ZrpTestNetworkBig.destination.ipv4.ip packetDropHopLimitReached:vector(packetBytes) ETV
attr interpolationmode none
attr recordingmode vector(packetBytes)
attr source packetDropReasonIsHopLimitReached(packetDropped)
attr title "packet drop: hop limit reached, packetBytes"
vector 134 ZrpTestNetworkBig.destination.ipv4.ip packetDropForwardingDisabled:vector(packetBytes) ETV
attr interpolationmode none
attr recordingmode vector(packetBytes)
attr source packetDropReasonIsForwardingDisabled(packetDropped)
attr title "packet drop: forwarding disabled, packetBytes"
vector 135 ZrpTestNetworkBig.destination.ipv4.ip packetDropNoInterfaceFound:vector(packetBytes) ETV
attr interpolationmode none
attr recordingmode vector(packetBytes)
attr source packetDropReasonIsNoInterfaceFound(packetDropped)
attr title "packet drop: no interface found, packetBytes"
vector 136 ZrpTestNetworkBig.destination.ipv4.ip packetDropNoRouteFound:vector(packetBytes) ETV
attr interpolationmode none
attr recordingmode vector(packetBytes)
attr source packetDropReasonIsNoRouteFound(packetDropped)
attr title "packet drop: no route found, packetBytes"
vector 137 ZrpTestNetworkBig.destination.ipv4.ip packetDropUndefined:vector(packetBytes) ETV
attr interpolationmode none
attr recordingmode vector(packetBytes)
attr source packetDropReasonIsUndefined(packetDropped)
attr title "packet drop: undefined, packetBytes"
vector 138 ZrpTestNetworkBig.destination.udp packetSent:vector(packetBytes) ETV
attr interpolationmode none
attr recordingmode vector(packetBytes)
attr source packetSent
attr title "packets sent, packetBytes"
vector 139 ZrpTestNetworkBig.destination.udp packetReceived:vector(packetBytes) ETV
attr interpolationmode none
attr recordingmode vector(packetBytes)
attr source packetReceived
attr title "packets received, packetBytes"
vector 140 ZrpTestNetworkBig.destination.udp passedUpPk:vector(count) ETV
attr interpolationmode none
attr recordingmode vector(count)
attr source packetSentToUpper
attr title "packets passed up, count"
vector 141 ZrpTestNetworkBig.destination.udp droppedPkWrongPort:vector(count) ETV
attr interpolationmode none
attr recordingmode vector(count)
attr source packetDropReasonIsNoPortFound(packetDropped)
attr title "packets dropped (wrong port), count"
vector 142 ZrpTestNetworkBig.destination.udp droppedPkBadChecksum:vector(count) ETV
attr interpolationmode none
attr recordingmode vector(count)
attr source packetDropReasonIsIncorrectlyReceived(packetDropped)
attr title "packets dropped (checksum error), count"
vector 143 ZrpTestNetworkBig.node1.lo[0].lo rcvdPkFromHl:vector(packetBytes) ETV
attr interpolationmode none
attr recordingmode vector(packetBytes)
attr source packetReceivedFromUpper
attr title "packets received from higher layer, packetBytes"
vector 144 ZrpTestNetworkBig.node1.lo[0].lo passedUpPk:vector(packetBytes) ETV
attr interpolationmode none
attr recordingmode vector(packetBytes)
attr source packetSentToUpper
attr title "packets passed to higher layer, packetBytes"
vector 145 ZrpTestNetworkBig.node1.lo[0] packetDropInterfaceDown:vector(packetBytes) ETV
attr interpolationmode none
attr recordingmode vector(packetBytes)
attr source packetDropReasonIsInterfaceDown(packetDropped)
attr title "packet drops: interface down, packetBytes"
vector 146 ZrpTestNetworkBig.node1.lo[0] packetDropNoCarrier:vector(packetBytes) ETV
attr interpolationmode none
attr recordingmode vector(packetBytes)
attr source packetDropReasonIsNoCarrier(packetDropped)
attr title "packet drops: no carrier, packetBytes"
vector 147 ZrpTestNetworkBig.node1.wlan[0].mac.dcf.channelAccess.pendingQueue queueLength:vector ETV
attr autoWarmupFilter false
attr interpolationmode sample-hold
attr recordingmode vector
attr source "warmup(atomic(constant0(packetPushEnded) + count(packetPushStarted) - count(packetPulled) - count(packetRemoved) - count(packetDropped)))"
attr title "queue length"
attr unit pk
vector 148 ZrpTestNetworkBig.node1.wlan[0].mac.dcf.channelAccess.pendingQueue queueBitLength:vector ETV
attr autoWarmupFilter false
attr interpolationmode sample-hold
attr recordingmode vector
attr source "warmup(atomic(constant0(packetPushEnded) + sum(packetLength(packetPushStarted)) - sum(packetLength(packetPulled)) - sum(packetLength(packetRemoved)) - sum(packetLength(packetDropped))))"
attr title "queue bit length"
attr unit b
vector 149 ZrpTestNetworkBig.node1.wlan[0].mac.dcf.channelAccess.pendingQueue queueingTime:vector ETV
attr interpolationmode none
attr recordingmode vector
attr source queueingTime(packetPulled)
attr title "queueing times"
attr unit s
vector 150 ZrpTestNetworkBig.node1.wlan[0].mac.dcf.channelAccess.pendingQueue incomingPacketLengths:vector ETV
attr interpolationmode none
attr recordingmode vector
attr source packetLength(packetPushStarted)
attr title "incoming packet lengths"
attr unit b
vector 151 ZrpTestNetworkBig.node1.wlan[0].mac.dcf.channelAccess.pendingQueue incomingDataRate:vector ETV
attr interpolationmode linear
attr recordingmode vector
attr source throughput(packetPushStarted)
attr title "incoming datarate"
attr unit bps
vector 152 ZrpTestNetworkBig.node1.wlan[0].mac.dcf.channelAccess.pendingQueue outgoingPacketLengths:vector ETV
attr interpolationmode none
attr recordingmode vector
attr source packetLength(packetPulled)
attr title "outgoing packet lengths"
attr unit b
vector 153 ZrpTestNetworkBig.node1.wlan[0].mac.dcf.channelAccess.pendingQueue outgoingDataRate:vector ETV
attr interpolationmode linear
attr recordingmode vector
attr source throughput(packetPulled)
attr title "outgoing datarate"
attr unit bps
vector 154 ZrpTestNetworkBig.node1.wlan[0].mac.dcf.channelAccess.pendingQueue droppedPacketLengthsQueueOverflow:vector ETV
attr interpolationmode none
attr recordingmode vector
attr source packetLength(packetDropReasonIsQueueOverflow(packetDropped))
attr title "dropped packet lengths: queue overflow"
attr unit b
vector 155 ZrpTestNetworkBig.node1.wlan[0].mac.dcf.channelAccess.pendingQueue flowQueueingTime:vector ETV
attr interpolationmode none
attr recordingmode vector
attr source queueingTime(demuxFlow(packetPulled))
attr title "flow queueing times"
attr unit s
vector 156 ZrpTestNetworkBig.node1.wlan[0].mac.dcf.channelAccess.pendingQueue flowIncomingDataRate:vector ETV
attr interpolationmode linear
attr recordingmode vector
attr source throughput(flowPacketLength(demuxFlow(packetPushStarted)))
attr title "flow specific incoming data rate"
attr unit bps
vector 157 ZrpTestNetworkBig.node1.wlan[0].mac.dcf.channelAccess.pendingQueue flowOutgoingDataRate:vector ETV
attr interpolationmode linear
attr recordingmode vector
attr source throughput(flowPacketLength(demuxFlow(packetPulled)))
attr title "flow specific outgoing data rate"
attr unit bps
vector 158 ZrpTestNetworkBig.node1.wlan[0].mac.dcf.channelAccess.inProgressFrames queueingTime:vector ETV
attr interpolationmode none
attr recordingmode vector
attr source queueingTime(packetDequeued)
attr title "queueing times"
vector 159 ZrpTestNetworkBig.node1.wlan[0].mac.dcf.channelAccess.inProgressFrames queueLength:vector ETV
attr autoWarmupFilter false
attr interpolationmode sample-hold
attr recordingmode vector
attr source "warmup(count(packetEnqueued) - count(packetDequeued))"
attr title "queue length"
vector 160 ZrpTestNetworkBig.node1.wlan[0].mac.dcf.channelAccess.contention backoffPeriodGenerated:vector ETV
attr interpolationmode none
attr recordingmode vector
attr title "backoff periods"
vector 161 ZrpTestNetworkBig.node1.wlan[0].mac.dcf.channelAccess.contention backoffActive:vector ETV
attr autoWarmupFilter false
attr interpolationmode sample-hold
attr recordingmode vector
attr source warmup(count(backoffStarted)-count(backoffStopped))
attr title "backoff active"
vector 162 ZrpTestNetworkBig.node1.wlan[0].mac.dcf.channelAccess.contention stateChanged:vector ETV
attr enum IDLE,DEFER,IFS_AND_BACKOFF
attr interpolationmode none
attr recordingmode vector
attr title "contention state changed"
attr type enum
vector 163 ZrpTestNetworkBig.node1.wlan[0].mac.dcf.recipientMacDataService packetDropDuplicateDetected:vector(packetBytes) ETV
attr interpolationmode none
attr recordingmode vector(packetBytes)
attr source packetDropReasonIsDuplicateDetected(packetDropped)
attr title "packet drops: duplicate detected, packetBytes"
vector 164 ZrpTestNetworkBig.node1.wlan[0].mac.dcf.recoveryProcedure contentionWindowChanged:vector ETV
attr interpolationmode sample-hold
attr recordingmode vector
attr title "contention window"
vector 165 ZrpTestNetworkBig.node1.wlan[0].mac.dcf packetSentToPeer:vector(packetBytes) ETV
attr interpolationmode none
attr recordingmode vector(packetBytes)
attr title "packets sent, packetBytes"
vector 166 ZrpTestNetworkBig.node1.wlan[0].mac.dcf packetSentToPeerUnicast:vector(packetBytes) ETV
attr interpolationmode none
attr recordingmode vector(packetBytes)
attr source ieee80211Unicast(packetSentToPeer)
attr title "packets sent: unicast, packetBytes"
vector 167 ZrpTestNetworkBig.node1.wlan[0].mac.dcf packetSentToPeerMulticast:vector(packetBytes) ETV
attr interpolationmode none
attr recordingmode vector(packetBytes)
attr source ieee80211Multicast(packetSentToPeer)
attr title "packets sent: multicast, packetBytes"
vector 168 ZrpTestNetworkBig.node1.wlan[0].mac.dcf packetSentToPeerBroadcast:vector(packetBytes) ETV
attr interpolationmode none
attr recordingmode vector(packetBytes)
attr source ieee80211Broadcast(packetSentToPeer)
attr title "packets sent: broadcast , packetBytes"
vector 169 ZrpTestNetworkBig.node1.wlan[0].mac.dcf packetSentToPeerWithRetry:vector(packetBytes) ETV
attr interpolationmode none
attr recordingmode vector(packetBytes)
attr source ieee80211Retry(packetSentToPeer)
attr title "packets sent: with retry, packetBytes"
vector 170 ZrpTestNetworkBig.node1.wlan[0].mac.dcf packetSentToPeerWithoutRetry:vector(packetBytes) ETV
attr interpolationmode none
attr recordingmode vector(packetBytes)
attr source ieee80211NotRetry(packetSentToPeer)
attr title "packets sent: without retry, packetBytes"
vector 171 ZrpTestNetworkBig.node1.wlan[0].mac.dcf packetReceivedFromPeer:vector(packetBytes) ETV
attr interpolationmode none
attr recordingmode vector(packetBytes)
attr title "packets received, packetBytes"
vector 172 ZrpTestNetworkBig.node1.wlan[0].mac.dcf packetReceivedFromPeerUnicast:vector(packetBytes) ETV
attr interpolationmode none
attr recordingmode vector(packetBytes)
attr source ieee80211Unicast(packetReceivedFromPeer)
attr title "packets received: unicast, packetBytes"
vector 173 ZrpTestNetworkBig.node1.wlan[0].mac.dcf packetReceivedFromPeerMulticast:vector(packetBytes) ETV
attr interpolationmode none
attr recordingmode vector(packetBytes)
attr source ieee80211Multicast(packetReceivedFromPeer)
attr title "packets received: multicast, packetBytes"
vector 174 ZrpTestNetworkBig.node1.wlan[0].mac.dcf packetReceivedFromPeerBroadcast:vector(packetBytes) ETV
attr interpolationmode none
attr recordingmode vector(packetBytes)
attr source ieee80211Broadcast(packetReceivedFromPeer)
attr title "packets received: broadcast, packetBytes"
vector 175 ZrpTestNetworkBig.node1.wlan[0].mac.dcf packetReceivedFromPeerWithRetry:vector(packetBytes) ETV
attr interpolationmode none
attr recordingmode vector(packetBytes)
attr source ieee80211Retry(packetReceivedFromPeer)
attr title "packets received: with retry, packetBytes"
vector 176 ZrpTestNetworkBig.node1.wlan[0].mac.dcf packetReceivedFromPeerWithoutRetry:vector(packetBytes) ETV
attr interpolationmode none
attr recordingmode vector(packetBytes)
attr source ieee80211NotRetry(packetReceivedFromPeer)
attr title "packets received: without retry, packetBytes"
vector 177 ZrpTestNetworkBig.node1.wlan[0].mac.dcf packetDrop:vector(packetBytes) ETV
attr interpolationmode none
attr recordingmode vector(packetBytes)
attr source packetDropped
attr title "packet drops, packetBytes"
vector 178 ZrpTestNetworkBig.node1.wlan[0].mac.dcf packetDropNotAddressedToUs:vector(packetBytes) ETV
attr interpolationmode none
attr recordingmode vector(packetBytes)
attr source packetDropReasonIsNotAddressedToUs(packetDropped)
attr title "packet drops: not addressed to us, packetBytes"
vector 179 ZrpTestNetworkBig.node1.wlan[0].mac.dcf packetDropQueueOverflow:vector(packetBytes) ETV
attr interpolationmode none
attr recordingmode vector(packetBytes)
attr source packetDropReasonIsQueueOverflow(packetDropped)
attr title "packet drops: queue overflow, packetBytes"
vector 180 ZrpTestNetworkBig.node1.wlan[0].mac.dcf packetDropRetryLimitReached:vector(packetBytes) ETV
attr interpolationmode none
attr recordingmode vector(packetBytes)
attr source packetDropReasonIsRetryLimitReached(packetDropped)
attr title "packet drops: retry limit reached, packetBytes"
vector 181 ZrpTestNetworkBig.node1.wlan[0].mac.dcf frameSequenceActive:vector ETV
attr autoWarmupFilter false
attr interpolationmode sample-hold
attr recordingmode vector
attr source warmup(count(frameSequenceStarted)-count(frameSequenceFinished))
attr title "frame sequence active"
vector 182 ZrpTestNetworkBig.node1.wlan[0].mac.dcf datarateSelected:vector ETV
attr interpolationmode none
attr recordingmode vector
attr title "datarates selected"
vector 183 ZrpTestNetworkBig.node1.wlan[0].mac.rx nav:vector ETV
attr interpolationmode linear
attr recordingmode vector
attr source navChanged
attr title "network allocation vector"
vector 184 ZrpTestNetworkBig.node1.wlan[0].mac packetSentToUpper:vector(packetBytes) ETV
attr interpolationmode none
attr recordingmode vector(packetBytes)
attr title "packets sent to upper layer, packetBytes"
vector 185 ZrpTestNetworkBig.node1.wlan[0].mac packetSentToLower:vector(packetBytes) ETV
attr interpolationmode none
attr recordingmode vector(packetBytes)
attr title "packets sent to lower layer, packetBytes"
vector 186 ZrpTestNetworkBig.node1.wlan[0].mac packetReceivedFromUpper:vector(packetBytes) ETV
attr interpolationmode none
attr recordingmode vector(packetBytes)
attr title "packets received from upper layer, packetBytes"
vector 187 ZrpTestNetworkBig.node1.wlan[0].mac packetReceivedFromLower:vector(packetBytes) ETV
attr interpolationmode none
attr recordingmode vector(packetBytes)
attr title "packets received from lower layer, packetBytes"
vector 188 ZrpTestNetworkBig.node1.wlan[0].mac packetDrop:vector(packetBytes) ETV
attr interpolationmode none
attr recordingmode vector(packetBytes)
attr source packetDropped
attr title "packet drops, packetBytes"
vector 189 ZrpTestNetworkBig.node1.wlan[0].mac packetDropIncorrectlyReceived:vector(packetBytes) ETV
attr interpolationmode none
attr recordingmode vector(packetBytes)
attr source packetDropReasonIsIncorrectlyReceived(packetDropped)
attr title "packet drops: incorrectly received, packetBytes"
vector 190 ZrpTestNetworkBig.node1.wlan[0].mac packetDropNotAddressedToUs:vector(packetBytes) ETV
attr interpolationmode none
attr recordingmode vector(packetBytes)
attr source packetDropReasonIsNotAddressedToUs(packetDropped)
attr title "packet drops: not addressed to us, packetBytes"
vector 191 ZrpTestNetworkBig.node1.wlan[0].mac packetDropQueueOverflow:vector(packetBytes) ETV
attr interpolationmode none
attr recordingmode vector(packetBytes)
attr source packetDropReasonIsQueueOverflow(packetDropped)
attr title "packet drops: queue overflow, packetBytes"
vector 192 ZrpTestNetworkBig.node1.wlan[0].mac packetDropRetryLimitReached:vector(packetBytes) ETV
attr interpolationmode none
attr recordingmode vector(packetBytes)
attr source packetDropReasonIsRetryLimitReached(packetDropped)
attr title "packet drops: retry limit reached, packetBytes"
vector 193 ZrpTestNetworkBig.node1.wlan[0].mac packetDropDuplicateDetected:vector(packetBytes) ETV
attr interpolationmode none
attr recordingmode vector(packetBytes)
attr source packetDropReasonIsDuplicateDetected(packetDropped)
attr title "packet drops: duplicate detected, packetBytes"
vector 194 ZrpTestNetworkBig.node1.wlan[0].mac packetDropOther:vector(packetBytes) ETV
attr interpolationmode none
attr recordingmode vector(packetBytes)
attr source packetDropReasonIsOther(packetDropped)
attr title "packet drops: other, packetBytes"
vector 195 ZrpTestNetworkBig.node1.wlan[0].radio radioMode:vector ETV
attr interpolationmode sample-hold
attr recordingmode vector
attr source radioModeChanged
attr title "Radio mode"
vector 196 ZrpTestNetworkBig.node1.wlan[0].radio receptionState:vector ETV
attr interpolationmode sample-hold
attr recordingmode vector
attr source receptionStateChanged
attr title "Radio reception state"
vector 197 ZrpTestNetworkBig.node1.wlan[0].radio transmissionState:vector ETV
attr interpolationmode sample-hold
attr recordingmode vector
attr source transmissionStateChanged
attr title "Radio transmission state"
vector 198 ZrpTestNetworkBig.node1.wlan[0].radio radioChannel:vector ETV
attr interpolationmode sample-hold
attr recordingmode vector
attr source radioChannelChanged
attr title "Radio channel"
vector 199 ZrpTestNetworkBig.node1.wlan[0] packetDropInterfaceDown:vector(packetBytes) ETV
attr interpolationmode none
attr recordingmode vector(packetBytes)
attr source packetDropReasonIsInterfaceDown(packetDropped)
attr title "packet drops: interface down, packetBytes"
vector 200 ZrpTestNetworkBig.node1.wlan[0] packetDropNoCarrier:vector(packetBytes) ETV
attr interpolationmode none
attr recordingmode vector(packetBytes)
attr source packetDropReasonIsNoCarrier(packetDropped)
attr title "packet drops: no carrier, packetBytes"
vector 201 ZrpTestNetworkBig.node1.ipv4.ip packetDropAddressResolutionFailed:vector(packetBytes) ETV
attr interpolationmode none
attr recordingmode vector(packetBytes)
attr source packetDropReasonIsAddressResolutionFailed(packetDropped)
attr title "packet drop: address resolution failed, packetBytes"
vector 202 ZrpTestNetworkBig.node1.ipv4.ip packetDropHopLimitReached:vector(packetBytes) ETV
attr interpolationmode none
attr recordingmode vector(packetBytes)
attr source packetDropReasonIsHopLimitReached(packetDropped)
attr title "packet drop: hop limit reached, packetBytes"
vector 203 ZrpTestNetworkBig.node1.ipv4.ip packetDropForwardingDisabled:vector(packetBytes) ETV
attr interpolationmode none
attr recordingmode vector(packetBytes)
attr source packetDropReasonIsForwardingDisabled(packetDropped)
attr title "packet drop: forwarding disabled, packetBytes"
vector 204 ZrpTestNetworkBig.node1.ipv4.ip packetDropNoInterfaceFound:vector(packetBytes) ETV
attr interpolationmode none
attr recordingmode vector(packetBytes)
attr source packetDropReasonIsNoInterfaceFound(packetDropped)
attr title "packet drop: no interface found, packetBytes"
vector 205 ZrpTestNetworkBig.node1.ipv4.ip packetDropNoRouteFound:vector(packetBytes) ETV
attr interpolationmode none
attr recordingmode vector(packetBytes)
attr source packetDropReasonIsNoRouteFound(packetDropped)
attr title "packet drop: no route found, packetBytes"
vector 206 ZrpTestNetworkBig.node1.ipv4.ip packetDropUndefined:vector(packetBytes) ETV
attr interpolationmode none
attr recordingmode vector(packetBytes)
attr source packetDropReasonIsUndefined(packetDropped)
attr title "packet drop: undefined, packetBytes"
vector 207 ZrpTestNetworkBig.node1.udp packetSent:vector(packetBytes) ETV
attr interpolationmode none
attr recordingmode vector(packetBytes)
attr source packetSent
attr title "packets sent, packetBytes"
vector 208 ZrpTestNetworkBig.node1.udp packetReceived:vector(packetBytes) ETV
attr interpolationmode none
attr recordingmode vector(packetBytes)
attr source packetReceived
attr title "packets received, packetBytes"
vector 209 ZrpTestNetworkBig.node1.udp passedUpPk:vector(count) ETV
attr interpolationmode none
attr recordingmode vector(count)
attr source packetSentToUpper
attr title "packets passed up, count"
vector 210 ZrpTestNetworkBig.node1.udp droppedPkWrongPort:vector(count) ETV
attr interpolationmode none
attr recordingmode vector(count)
attr source packetDropReasonIsNoPortFound(packetDropped)
attr title "packets dropped (wrong port), count"
vector 211 ZrpTestNetworkBig.node1.udp droppedPkBadChecksum:vector(count) ETV
attr interpolationmode none
attr recordingmode vector(count)
attr source packetDropReasonIsIncorrectlyReceived(packetDropped)
attr title "packets dropped (checksum error), count"
vector 212 ZrpTestNetworkBig.node2.lo[0].lo rcvdPkFromHl:vector(packetBytes) ETV
attr interpolationmode none
attr recordingmode vector(packetBytes)
attr source packetReceivedFromUpper
attr title "packets received from higher layer, packetBytes"
vector 213 ZrpTestNetworkBig.node2.lo[0].lo passedUpPk:vector(packetBytes) ETV
attr interpolationmode none
attr recordingmode vector(packetBytes)
attr source packetSentToUpper
attr title "packets passed to higher layer, packetBytes"
vector 214 ZrpTestNetworkBig.node2.lo[0] packetDropInterfaceDown:vector(packetBytes) ETV
attr interpolationmode none
attr recordingmode vector(packetBytes)
attr source packetDropReasonIsInterfaceDown(packetDropped)
attr title "packet drops: interface down, packetBytes"
vector 215 ZrpTestNetworkBig.node2.lo[0] packetDropNoCarrier:vector(packetBytes) ETV
attr interpolationmode none
attr recordingmode vector(packetBytes)
attr source packetDropReasonIsNoCarrier(packetDropped)
attr title "packet drops: no carrier, packetBytes"
vector 216 ZrpTestNetworkBig.node2.wlan[0].mac.dcf.channelAccess.pendingQueue queueLength:vector ETV
attr autoWarmupFilter false
attr interpolationmode sample-hold
attr recordingmode vector
attr source "warmup(atomic(constant0(packetPushEnded) + count(packetPushStarted) - count(packetPulled) - count(packetRemoved) - count(packetDropped)))"
attr title "queue length"
attr unit pk
vector 217 ZrpTestNetworkBig.node2.wlan[0].mac.dcf.channelAccess.pendingQueue queueBitLength:vector ETV
attr autoWarmupFilter false
attr interpolationmode sample-hold
attr recordingmode vector
attr source "warmup(atomic(constant0(packetPushEnded) + sum(packetLength(packetPushStarted)) - sum(packetLength(packetPulled)) - sum(packetLength(packetRemoved)) - sum(packetLength(packetDropped))))"
attr title "queue bit length"
attr unit b
vector 218 ZrpTestNetworkBig.node2.wlan[0].mac.dcf.channelAccess.pendingQueue queueingTime:vector ETV
attr interpolationmode none
attr recordingmode vector
attr source queueingTime(packetPulled)
attr title "queueing times"
attr unit s
vector 219 ZrpTestNetworkBig.node2.wlan[0].mac.dcf.channelAccess.pendingQueue incomingPacketLengths:vector ETV
attr interpolationmode none
attr recordingmode vector
attr source packetLength(packetPushStarted)
attr title "incoming packet lengths"
attr unit b
vector 220 ZrpTestNetworkBig.node2.wlan[0].mac.dcf.channelAccess.pendingQueue incomingDataRate:vector ETV
attr interpolationmode linear
attr recordingmode vector
attr source throughput(packetPushStarted)
attr title "incoming datarate"
attr unit bps
vector 221 ZrpTestNetworkBig.node2.wlan[0].mac.dcf.channelAccess.pendingQueue outgoingPacketLengths:vector ETV
attr interpolationmode none
attr recordingmode vector
attr source packetLength(packetPulled)
attr title "outgoing packet lengths"
attr unit b
vector 222 ZrpTestNetworkBig.node2.wlan[0].mac.dcf.channelAccess.pendingQueue outgoingDataRate:vector ETV
attr interpolationmode linear
attr recordingmode vector
attr source throughput(packetPulled)
attr title "outgoing datarate"
attr unit bps
vector 223 ZrpTestNetworkBig.node2.wlan[0].mac.dcf.channelAccess.pendingQueue droppedPacketLengthsQueueOverflow:vector ETV
attr interpolationmode none
attr recordingmode vector
attr source packetLength(packetDropReasonIsQueueOverflow(packetDropped))
attr title "dropped packet lengths: queue overflow"
attr unit b
vector 224 ZrpTestNetworkBig.node2.wlan[0].mac.dcf.channelAccess.pendingQueue flowQueueingTime:vector ETV
attr interpolationmode none
attr recordingmode vector
attr source queueingTime(demuxFlow(packetPulled))
attr title "flow queueing times"
attr unit s
vector 225 ZrpTestNetworkBig.node2.wlan[0].mac.dcf.channelAccess.pendingQueue flowIncomingDataRate:vector ETV
attr interpolationmode linear
attr recordingmode vector
attr source throughput(flowPacketLength(demuxFlow(packetPushStarted)))
attr title "flow specific incoming data rate"
attr unit bps
vector 226 ZrpTestNetworkBig.node2.wlan[0].mac.dcf.channelAccess.pendingQueue flowOutgoingDataRate:vector ETV
attr interpolationmode linear
attr recordingmode vector
attr source throughput(flowPacketLength(demuxFlow(packetPulled)))
attr title "flow specific outgoing data rate"
attr unit bps
vector 227 ZrpTestNetworkBig.node2.wlan[0].mac.dcf.channelAccess.inProgressFrames queueingTime:vector ETV
attr interpolationmode none
attr recordingmode vector
attr source queueingTime(packetDequeued)
attr title "queueing times"
vector 228 ZrpTestNetworkBig.node2.wlan[0].mac.dcf.channelAccess.inProgressFrames queueLength:vector ETV
attr autoWarmupFilter false
attr interpolationmode sample-hold
attr recordingmode vector
attr source "warmup(count(packetEnqueued) - count(packetDequeued))"
attr title "queue length"
vector 229 ZrpTestNetworkBig.node2.wlan[0].mac.dcf.channelAccess.contention backoffPeriodGenerated:vector ETV
attr interpolationmode none
attr recordingmode vector
attr title "backoff periods"
vector 230 ZrpTestNetworkBig.node2.wlan[0].mac.dcf.channelAccess.contention backoffActive:vector ETV
attr autoWarmupFilter false
attr interpolationmode sample-hold
attr recordingmode vector
attr source warmup(count(backoffStarted)-count(backoffStopped))
attr title "backoff active"
vector 231 ZrpTestNetworkBig.node2.wlan[0].mac.dcf.channelAccess.contention stateChanged:vector ETV
attr enum IDLE,DEFER,IFS_AND_BACKOFF
attr interpolationmode none
attr recordingmode vector
attr title "contention state changed"
attr type enum
vector 232 ZrpTestNetworkBig.node2.wlan[0].mac.dcf.recipientMacDataService packetDropDuplicateDetected:vector(packetBytes) ETV
attr interpolationmode none
attr recordingmode vector(packetBytes)
attr source packetDropReasonIsDuplicateDetected(packetDropped)
attr title "packet drops: duplicate detected, packetBytes"
vector 233 ZrpTestNetworkBig.node2.wlan[0].mac.dcf.recoveryProcedure contentionWindowChanged:vector ETV
attr interpolationmode sample-hold
attr recordingmode vector
attr title "contention window"
vector 234 ZrpTestNetworkBig.node2.wlan[0].mac.dcf packetSentToPeer:vector(packetBytes) ETV
attr interpolationmode none
attr recordingmode vector(packetBytes)
attr title "packets sent, packetBytes"
vector 235 ZrpTestNetworkBig.node2.wlan[0].mac.dcf packetSentToPeerUnicast:vector(packetBytes) ETV
attr interpolationmode none
attr recordingmode vector(packetBytes)
attr source ieee80211Unicast(packetSentToPeer)
attr title "packets sent: unicast, packetBytes"
vector 236 ZrpTestNetworkBig.node2.wlan[0].mac.dcf packetSentToPeerMulticast:vector(packetBytes) ETV
attr interpolationmode none
attr recordingmode vector(packetBytes)
attr source ieee80211Multicast(packetSentToPeer)
attr title "packets sent: multicast, packetBytes"
vector 237 ZrpTestNetworkBig.node2.wlan[0].mac.dcf packetSentToPeerBroadcast:vector(packetBytes) ETV
attr interpolationmode none
attr recordingmode vector(packetBytes)
attr source ieee80211Broadcast(packetSentToPeer)
attr title "packets sent: broadcast , packetBytes"
vector 238 ZrpTestNetworkBig.node2.wlan[0].mac.dcf packetSentToPeerWithRetry:vector(packetBytes) ETV
attr interpolationmode none
attr recordingmode vector(packetBytes)
attr source ieee80211Retry(packetSentToPeer)
attr title "packets sent: with retry, packetBytes"
vector 239 ZrpTestNetworkBig.node2.wlan[0].mac.dcf packetSentToPeerWithoutRetry:vector(packetBytes) ETV
attr interpolationmode none
attr recordingmode vector(packetBytes)
attr source ieee80211NotRetry(packetSentToPeer)
attr title "packets sent: without retry, packetBytes"
vector 240 ZrpTestNetworkBig.node2.wlan[0].mac.dcf packetReceivedFromPeer:vector(packetBytes) ETV
attr interpolationmode none
attr recordingmode vector(packetBytes)
attr title "packets received, packetBytes"
vector 241 ZrpTestNetworkBig.node2.wlan[0].mac.dcf packetReceivedFromPeerUnicast:vector(packetBytes) ETV
attr interpolationmode none
attr recordingmode vector(packetBytes)
attr source ieee80211Unicast(packetReceivedFromPeer)
attr title "packets received: unicast, packetBytes"
vector 242 ZrpTestNetworkBig.node2.wlan[0].mac.dcf packetReceivedFromPeerMulticast:vector(packetBytes) ETV
attr interpolationmode none
attr recordingmode vector(packetBytes)
attr source ieee80211Multicast(packetReceivedFromPeer)
attr title "packets received: multicast, packetBytes"
vector 243 ZrpTestNetworkBig.node2.wlan[0].mac.dcf packetReceivedFromPeerBroadcast:vector(packetBytes) ETV
attr interpolationmode none
attr recordingmode vector(packetBytes)
attr source ieee80211Broadcast(packetReceivedFromPeer)
attr title "packets received: broadcast, packetBytes"
vector 244 ZrpTestNetworkBig.node2.wlan[0].mac.dcf packetReceivedFromPeerWithRetry:vector(packetBytes) ETV
attr interpolationmode none
attr recordingmode vector(packetBytes)
attr source ieee80211Retry(packetReceivedFromPeer)
attr title "packets received: with retry, packetBytes"
vector 245 ZrpTestNetworkBig.node2.wlan[0].mac.dcf packetReceivedFromPeerWithoutRetry:vector(packetBytes) ETV
attr interpolationmode none
attr recordingmode vector(packetBytes)
attr source ieee80211NotRetry(packetReceivedFromPeer)
attr title "packets received: without retry, packetBytes"
vector 246 ZrpTestNetworkBig.node2.wlan[0].mac.dcf packetDrop:vector(packetBytes) ETV
attr interpolationmode none
attr recordingmode vector(packetBytes)
attr source packetDropped
attr title "packet drops, packetBytes"
vector 247 ZrpTestNetworkBig.node2.wlan[0].mac.dcf packetDropNotAddressedToUs:vector(packetBytes) ETV
attr interpolationmode none
attr recordingmode vector(packetBytes)
attr source packetDropReasonIsNotAddressedToUs(packetDropped)
attr title "packet drops: not addressed to us, packetBytes"
vector 248 ZrpTestNetworkBig.node2.wlan[0].mac.dcf packetDropQueueOverflow:vector(packetBytes) ETV
attr interpolationmode none
attr recordingmode vector(packetBytes)
attr source packetDropReasonIsQueueOverflow(packetDropped)
attr title "packet drops: queue overflow, packetBytes"
vector 249 ZrpTestNetworkBig.node2.wlan[0].mac.dcf packetDropRetryLimitReached:vector(packetBytes) ETV
attr interpolationmode none
attr recordingmode vector(packetBytes)
attr source packetDropReasonIsRetryLimitReached(packetDropped)
attr title "packet drops: retry limit reached, packetBytes"
vector 250 ZrpTestNetworkBig.node2.wlan[0].mac.dcf frameSequenceActive:vector ETV
attr autoWarmupFilter false
attr interpolationmode sample-hold
attr recordingmode vector
attr source warmup(count(frameSequenceStarted)-count(frameSequenceFinished))
attr title "frame sequence active"
vector 251 ZrpTestNetworkBig.node2.wlan[0].mac.dcf datarateSelected:vector ETV
attr interpolationmode none
attr recordingmode vector
attr title "datarates selected"
vector 252 ZrpTestNetworkBig.node2.wlan[0].mac.rx nav:vector ETV
attr interpolationmode linear
attr recordingmode vector
attr source navChanged
attr title "network allocation vector"
vector 253 ZrpTestNetworkBig.node2.wlan[0].mac packetSentToUpper:vector(packetBytes) ETV
attr interpolationmode none
attr recordingmode vector(packetBytes)
attr title "packets sent to upper layer, packetBytes"
vector 254 ZrpTestNetworkBig.node2.wlan[0].mac packetSentToLower:vector(packetBytes) ETV
attr interpolationmode none
attr recordingmode vector(packetBytes)
attr title "packets sent to lower layer, packetBytes"
vector 255 ZrpTestNetworkBig.node2.wlan[0].mac packetReceivedFromUpper:vector(packetBytes) ETV
attr interpolationmode none
attr recordingmode vector(packetBytes)
attr title "packets received from upper layer, packetBytes"
vector 256 ZrpTestNetworkBig.node2.wlan[0].mac packetReceivedFromLower:vector(packetBytes) ETV
attr interpolationmode none
attr recordingmode vector(packetBytes)
attr title "packets received from lower layer, packetBytes"
vector 257 ZrpTestNetworkBig.node2.wlan[0].mac packetDrop:vector(packetBytes) ETV
attr interpolationmode none
attr recordingmode vector(packetBytes)
attr source packetDropped
attr title "packet drops, packetBytes"
vector 258 ZrpTestNetworkBig.node2.wlan[0].mac packetDropIncorrectlyReceived:vector(packetBytes) ETV
attr interpolationmode none
attr recordingmode vector(packetBytes)
attr source packetDropReasonIsIncorrectlyReceived(packetDropped)
attr title "packet drops: incorrectly received, packetBytes"
vector 259 ZrpTestNetworkBig.node2.wlan[0].mac packetDropNotAddressedToUs:vector(packetBytes) ETV
attr interpolationmode none
attr recordingmode vector(packetBytes)
attr source packetDropReasonIsNotAddressedToUs(packetDropped)
attr title "packet drops: not addressed to us, packetBytes"
vector 260 ZrpTestNetworkBig.node2.wlan[0].mac packetDropQueueOverflow:vector(packetBytes) ETV
attr interpolationmode none
attr recordingmode vector(packetBytes)
attr source packetDropReasonIsQueueOverflow(packetDropped)
attr title "packet drops: queue overflow, packetBytes"
vector 261 ZrpTestNetworkBig.node2.wlan[0].mac packetDropRetryLimitReached:vector(packetBytes) ETV
attr interpolationmode none
attr recordingmode vector(packetBytes)
attr source packetDropReasonIsRetryLimitReached(packetDropped)
attr title "packet drops: retry limit reached, packetBytes"
vector 262 ZrpTestNetworkBig.node2.wlan[0].mac packetDropDuplicateDetected:vector(packetBytes) ETV
attr interpolationmode none
attr recordingmode vector(packetBytes)
attr source packetDropReasonIsDuplicateDetected(packetDropped)
attr title "packet drops: duplicate detected, packetBytes"
vector 263 ZrpTestNetworkBig.node2.wlan[0].mac packetDropOther:vector(packetBytes) ETV
attr interpolationmode none
attr recordingmode vector(packetBytes)
attr source packetDropReasonIsOther(packetDropped)
attr title "packet drops: other, packetBytes"
vector 264 ZrpTestNetworkBig.node2.wlan[0].radio radioMode:vector ETV
attr interpolationmode sample-hold
attr recordingmode vector
attr source radioModeChanged
attr title "Radio mode"
vector 265 ZrpTestNetworkBig.node2.wlan[0].radio receptionState:vector ETV
attr interpolationmode sample-hold
attr recordingmode vector
attr source receptionStateChanged
attr title "Radio reception state"
vector 266 ZrpTestNetworkBig.node2.wlan[0].radio transmissionState:vector ETV
attr interpolationmode sample-hold
attr recordingmode vector
attr source transmissionStateChanged
attr title "Radio transmission state"
vector 267 ZrpTestNetworkBig.node2.wlan[0].radio radioChannel:vector ETV
attr interpolationmode sample-hold
attr recordingmode vector
attr source radioChannelChanged
attr title "Radio channel"
vector 268 ZrpTestNetworkBig.node2.wlan[0] packetDropInterfaceDown:vector(packetBytes) ETV
attr interpolationmode none
attr recordingmode vector(packetBytes)
attr source packetDropReasonIsInterfaceDown(packetDropped)
attr title "packet drops: interface down, packetBytes"
vector 269 ZrpTestNetworkBig.node2.wlan[0] packetDropNoCarrier:vector(packetBytes) ETV
attr interpolationmode none
attr recordingmode vector(packetBytes)
attr source packetDropReasonIsNoCarrier(packetDropped)
attr title "packet drops: no carrier, packetBytes"
vector 270 ZrpTestNetworkBig.node2.ipv4.ip packetDropAddressResolutionFailed:vector(packetBytes) ETV
attr interpolationmode none
attr recordingmode vector(packetBytes)
attr source packetDropReasonIsAddressResolutionFailed(packetDropped)
attr title "packet drop: address resolution failed, packetBytes"
vector 271 ZrpTestNetworkBig.node2.ipv4.ip packetDropHopLimitReached:vector(packetBytes) ETV
attr interpolationmode none
attr recordingmode vector(packetBytes)
attr source packetDropReasonIsHopLimitReached(packetDropped)
attr title "packet drop: hop limit reached, packetBytes"
vector 272 ZrpTestNetworkBig.node2.ipv4.ip packetDropForwardingDisabled:vector(packetBytes) ETV
attr interpolationmode none
attr recordingmode vector(packetBytes)
attr source packetDropReasonIsForwardingDisabled(packetDropped)
attr title "packet drop: forwarding disabled, packetBytes"
vector 273 ZrpTestNetworkBig.node2.ipv4.ip packetDropNoInterfaceFound:vector(packetBytes) ETV
attr interpolationmode none
attr recordingmode vector(packetBytes)
attr source packetDropReasonIsNoInterfaceFound(packetDropped)
attr title "packet drop: no interface found, packetBytes"
vector 274 ZrpTestNetworkBig.node2.ipv4.ip packetDropNoRouteFound:vector(packetBytes) ETV
attr interpolationmode none
attr recordingmode vector(packetBytes)
attr source packetDropReasonIsNoRouteFound(packetDropped)
attr title "packet drop: no route found, packetBytes"
vector 275 ZrpTestNetworkBig.node2.ipv4.ip packetDropUndefined:vector(packetBytes) ETV
attr interpolationmode none
attr recordingmode vector(packetBytes)
attr source packetDropReasonIsUndefined(packetDropped)
attr title "packet drop: undefined, packetBytes"
vector 276 ZrpTestNetworkBig.node2.udp packetSent:vector(packetBytes) ETV
attr interpolationmode none
attr recordingmode vector(packetBytes)
attr source packetSent
attr title "packets sent, packetBytes"
vector 277 ZrpTestNetworkBig.node2.udp packetReceived:vector(packetBytes) ETV
attr interpolationmode none
attr recordingmode vector(packetBytes)
attr source packetReceived
attr title "packets received, packetBytes"
vector 278 ZrpTestNetworkBig.node2.udp passedUpPk:vector(count) ETV
attr interpolationmode none
attr recordingmode vector(count)
attr source packetSentToUpper
attr title "packets passed up, count"
vector 279 ZrpTestNetworkBig.node2.udp droppedPkWrongPort:vector(count) ETV
attr interpolationmode none
attr recordingmode vector(count)
attr source packetDropReasonIsNoPortFound(packetDropped)
attr title "packets dropped (wrong port), count"
vector 280 ZrpTestNetworkBig.node2.udp droppedPkBadChecksum:vector(count) ETV
attr interpolationmode none
attr recordingmode vector(count)
attr source packetDropReasonIsIncorrectlyReceived(packetDropped)
attr title "packets dropped (checksum error), count"
vector 281 ZrpTestNetworkBig.node3.lo[0].lo rcvdPkFromHl:vector(packetBytes) ETV
attr interpolationmode none
attr recordingmode vector(packetBytes)
attr source packetReceivedFromUpper
attr title "packets received from higher layer, packetBytes"
vector 282 ZrpTestNetworkBig.node3.lo[0].lo passedUpPk:vector(packetBytes) ETV
attr interpolationmode none
attr recordingmode vector(packetBytes)
attr source packetSentToUpper
attr title "packets passed to higher layer, packetBytes"
vector 283 ZrpTestNetworkBig.node3.lo[0] packetDropInterfaceDown:vector(packetBytes) ETV
attr interpolationmode none
attr recordingmode vector(packetBytes)
attr source packetDropReasonIsInterfaceDown(packetDropped)
attr title "packet drops: interface down, packetBytes"
vector 284 ZrpTestNetworkBig.node3.lo[0] packetDropNoCarrier:vector(packetBytes) ETV
attr interpolationmode none
attr recordingmode vector(packetBytes)
attr source packetDropReasonIsNoCarrier(packetDropped)
attr title "packet drops: no carrier, packetBytes"
vector 285 ZrpTestNetworkBig.node3.wlan[0].mac.dcf.channelAccess.pendingQueue queueLength:vector ETV
attr autoWarmupFilter false
attr interpolationmode sample-hold
attr recordingmode vector
attr source "warmup(atomic(constant0(packetPushEnded) + count(packetPushStarted) - count(packetPulled) - count(packetRemoved) - count(packetDropped)))"
attr title "queue length"
attr unit pk
vector 286 ZrpTestNetworkBig.node3.wlan[0].mac.dcf.channelAccess.pendingQueue queueBitLength:vector ETV
attr autoWarmupFilter false
attr interpolationmode sample-hold
attr recordingmode vector
attr source "warmup(atomic(constant0(packetPushEnded) + sum(packetLength(packetPushStarted)) - sum(packetLength(packetPulled)) - sum(packetLength(packetRemoved)) - sum(packetLength(packetDropped))))"
attr title "queue bit length"
attr unit b
vector 287 ZrpTestNetworkBig.node3.wlan[0].mac.dcf.channelAccess.pendingQueue queueingTime:vector ETV
attr interpolationmode none
attr recordingmode vector
attr source queueingTime(packetPulled)
attr title "queueing times"
attr unit s
vector 288 ZrpTestNetworkBig.node3.wlan[0].mac.dcf.channelAccess.pendingQueue incomingPacketLengths:vector ETV
attr interpolationmode none
attr recordingmode vector
attr source packetLength(packetPushStarted)
attr title "incoming packet lengths"
attr unit b
vector 289 ZrpTestNetworkBig.node3.wlan[0].mac.dcf.channelAccess.pendingQueue incomingDataRate:vector ETV
attr interpolationmode linear
attr recordingmode vector
attr source throughput(packetPushStarted)
attr title "incoming datarate"
attr unit bps
vector 290 ZrpTestNetworkBig.node3.wlan[0].mac.dcf.channelAccess.pendingQueue outgoingPacketLengths:vector ETV
attr interpolationmode none
attr recordingmode vector
attr source packetLength(packetPulled)
attr title "outgoing packet lengths"
attr unit b
vector 291 ZrpTestNetworkBig.node3.wlan[0].mac.dcf.channelAccess.pendingQueue outgoingDataRate:vector ETV
attr interpolationmode linear
attr recordingmode vector
attr source throughput(packetPulled)
attr title "outgoing datarate"
attr unit bps
vector 292 ZrpTestNetworkBig.node3.wlan[0].mac.dcf.channelAccess.pendingQueue droppedPacketLengthsQueueOverflow:vector ETV
attr interpolationmode none
attr recordingmode vector
attr source packetLength(packetDropReasonIsQueueOverflow(packetDropped))
attr title "dropped packet lengths: queue overflow"
attr unit b
vector 293 ZrpTestNetworkBig.node3.wlan[0].mac.dcf.channelAccess.pendingQueue flowQueueingTime:vector ETV
attr interpolationmode none
attr recordingmode vector
attr source queueingTime(demuxFlow(packetPulled))
attr title "flow queueing times"
attr unit s
vector 294 ZrpTestNetworkBig.node3.wlan[0].mac.dcf.channelAccess.pendingQueue flowIncomingDataRate:vector ETV
attr interpolationmode linear
attr recordingmode vector
attr source throughput(flowPacketLength(demuxFlow(packetPushStarted)))
attr title "flow specific incoming data rate"
attr unit bps
vector 295 ZrpTestNetworkBig.node3.wlan[0].mac.dcf.channelAccess.pendingQueue flowOutgoingDataRate:vector ETV
attr interpolationmode linear
attr recordingmode vector
attr source throughput(flowPacketLength(demuxFlow(packetPulled)))
attr title "flow specific outgoing data rate"
attr unit bps
vector 296 ZrpTestNetworkBig.node3.wlan[0].mac.dcf.channelAccess.inProgressFrames queueingTime:vector ETV
attr interpolationmode none
attr recordingmode vector
attr source queueingTime(packetDequeued)
attr title "queueing times"
vector 297 ZrpTestNetworkBig.node3.wlan[0].mac.dcf.channelAccess.inProgressFrames queueLength:vector ETV
attr autoWarmupFilter false
attr interpolationmode sample-hold
attr recordingmode vector
attr source "warmup(count(packetEnqueued) - count(packetDequeued))"
attr title "queue length"
vector 298 ZrpTestNetworkBig.node3.wlan[0].mac.dcf.channelAccess.contention backoffPeriodGenerated:vector ETV
attr interpolationmode none
attr recordingmode vector
attr title "backoff periods"
vector 299 ZrpTestNetworkBig.node3.wlan[0].mac.dcf.channelAccess.contention backoffActive:vector ETV
attr autoWarmupFilter false
attr interpolationmode sample-hold
attr recordingmode vector
[...]
899	4656	9.16213694644	38
899	4720	9.236874579693	39
899	4902	9.291076257118	40
899	4959	9.339506149849	41
899	5092	9.368529505916	42
899	5429	10.036069190165	43
900	0	0	0
901	0	0	0
906	0	0	0
906	0	0	0
906	0	0	0
906	0	0	0
906	0	0	0
906	33	0.001878979802	1
906	35	0.001878979802	0
906	895	3.001878979802	1
906	897	3.001878979802	0
906	1771	6.001878979802	1
906	1773	6.001878979802	0
906	2890	6.162070502061	1
906	2892	6.162070502061	0
906	3495	9.001878979802	1
906	3497	9.001878979802	0
906	4614	9.162070502061	1
906	4616	9.162070502061	0
907	0	0	0
907	0	0	0
907	0	0	0
907	0	0	0
907	0	0	0
907	33	0.001878979802	560
907	35	0.001878979802	0
907	895	3.001878979802	560
907	897	3.001878979802	0
907	1771	6.001878979802	560
907	1773	6.001878979802	0
907	2890	6.162070502061	864
907	2892	6.162070502061	0
907	3495	9.001878979802	560
907	3497	9.001878979802	0
907	4614	9.162070502061	864
907	4616	9.162070502061	0
908	35	0.001878979802	0
908	897	3.001878979802	0
908	1773	6.001878979802	0
908	2892	6.162070502061	0
908	3497	9.001878979802	0
908	4616	9.162070502061	0
909	33	0.001878979802	560
909	895	3.001878979802	560
909	1771	6.001878979802	560
909	2890	6.162070502061	864
909	3495	9.001878979802	560
909	4614	9.162070502061	864
910	895	0.1	5600
910	895	0.2	0
910	895	0.3	0
910	895	0.4	0
910	895	0.5	0
910	895	0.6	0
910	895	0.7	0
910	895	0.8	0
910	895	0.9	0
910	895	1	0
910	895	1.1	0
910	895	1.2	0
910	895	1.3	0
910	895	1.4	0
910	895	1.5	0
910	895	1.6	0
910	895	1.7	0
910	895	1.8	0
910	895	1.9	0
910	895	2	0
910	895	2.1	0
910	895	2.2	0
910	895	2.3	0
910	895	2.4	0
910	895	2.5	0
910	895	2.6	0
910	895	2.7	0
910	895	2.8	0
910	895	2.9	0
910	895	3	0
910	1771	3.1	5600
910	1771	3.2	0
910	1771	3.3	0
910	1771	3.4	0
910	1771	3.5	0
910	1771	3.6	0
910	1771	3.7	0
910	1771	3.8	0
910	1771	3.9	0
910	1771	4	0
910	1771	4.1	0
910	1771	4.2	0
910	1771	4.3	0
910	1771	4.4	0
910	1771	4.5	0
910	1771	4.6	0
910	1771	4.7	0
910	1771	4.8	0
910	1771	4.9	0
910	1771	5	0
910	1771	5.1	0
910	1771	5.2	0
910	1771	5.3	0
910	1771	5.4	0
910	1771	5.5	0
910	1771	5.6	0
910	1771	5.7	0
910	1771	5.8	0
910	1771	5.9	0
910	1771	6	0
910	2890	6.1	5600
910	3495	6.2	8640
910	3495	6.3	0
910	3495	6.4	0
910	3495	6.5	0
910	3495	6.6	0
910	3495	6.7	0
910	3495	6.8	0
910	3495	6.9	0
910	3495	7	0
910	3495	7.1	0
910	3495	7.2	0
910	3495	7.3	0
910	3495	7.4	0
910	3495	7.5	0
910	3495	7.6	0
910	3495	7.7	0
910	3495	7.8	0
910	3495	7.9	0
910	3495	8	0
910	3495	8.1	0
910	3495	8.2	0
910	3495	8.3	0
910	3495	8.4	0
910	3495	8.5	0
910	3495	8.6	0
910	3495	8.7	0
910	3495	8.8	0
910	3495	8.9	0
910	3495	9	0
910	4614	9.1	5600
911	35	0.001878979802	560
911	897	3.001878979802	560
911	1773	6.001878979802	560
911	2892	6.162070502061	864
911	3497	9.001878979802	560
911	4616	9.162070502061	864
912	897	0.1	5600
912	897	0.2	0
912	897	0.3	0
912	897	0.4	0
912	897	0.5	0
912	897	0.6	0
912	897	0.7	0
912	897	0.8	0
912	897	0.9	0
912	897	1	0
912	897	1.1	0
912	897	1.2	0
912	897	1.3	0
912	897	1.4	0
912	897	1.5	0
912	897	1.6	0
912	897	1.7	0
912	897	1.8	0
912	897	1.9	0
912	897	2	0
912	897	2.1	0
912	897	2.2	0
912	897	2.3	0
912	897	2.4	0
912	897	2.5	0
912	897	2.6	0
912	897	2.7	0
912	897	2.8	0
912	897	2.9	0
912	897	3	0
912	1773	3.1	5600
912	1773	3.2	0
912	1773	3.3	0
912	1773	3.4	0
912	1773	3.5	0
912	1773	3.6	0
912	1773	3.7	0
912	1773	3.8	0
912	1773	3.9	0
912	1773	4	0
912	1773	4.1	0
912	1773	4.2	0
912	1773	4.3	0
912	1773	4.4	0
912	1773	4.5	0
912	1773	4.6	0
912	1773	4.7	0
912	1773	4.8	0
912	1773	4.9	0
912	1773	5	0
912	1773	5.1	0
912	1773	5.2	0
912	1773	5.3	0
912	1773	5.4	0
912	1773	5.5	0
912	1773	5.6	0
912	1773	5.7	0
912	1773	5.8	0
912	1773	5.9	0
912	1773	6	0
912	2892	6.1	5600
912	3497	6.2	8640
912	3497	6.3	0
912	3497	6.4	0
912	3497	6.5	0
912	3497	6.6	0
912	3497	6.7	0
912	3497	6.8	0
912	3497	6.9	0
912	3497	7	0
912	3497	7.1	0
912	3497	7.2	0
912	3497	7.3	0
912	3497	7.4	0
912	3497	7.5	0
912	3497	7.6	0
912	3497	7.7	0
912	3497	7.8	0
912	3497	7.9	0
912	3497	8	0
912	3497	8.1	0
912	3497	8.2	0
912	3497	8.3	0
912	3497	8.4	0
912	3497	8.5	0
912	3497	8.6	0
912	3497	8.7	0
912	3497	8.8	0
912	3497	8.9	0
912	3497	9	0
912	4616	9.1	5600
917	51	0.001932979802	5.4e-05
917	913	3.001932979802	5.4e-05
917	1789	6.001932979802	5.4e-05
917	2908	6.162136502061	6.6e-05
917	3513	9.001932979802	5.4e-05
917	4632	9.162136502061	6.6e-05
918	0	0	0
918	0	0	0
918	35	0.001878979802	1
918	51	0.001932979802	0
918	897	3.001878979802	1
918	913	3.001932979802	0
918	1773	6.001878979802	1
918	1789	6.001932979802	0
918	2892	6.162070502061	1
918	2908	6.162136502061	0
918	3497	9.001878979802	1
918	3513	9.001932979802	0
918	4616	9.162070502061	1
918	4632	9.162136502061	0
919	33	0.001878979802	21
919	895	3.001878979802	1
919	1771	6.001878979802	21
919	2890	6.162070502061	15
919	3495	9.001878979802	17
919	4614	9.162070502061	13
920	0	0	0
920	0	0	0
920	33	0.001878979802	1
920	34	0.001878979802	0
920	895	3.001878979802	1
920	896	3.001878979802	0
920	1771	6.001878979802	1
920	1772	6.001878979802	0
920	2890	6.162070502061	1
920	2891	6.162070502061	0
920	3495	9.001878979802	1
920	3496	9.001878979802	0
920	4614	9.162070502061	1
920	4615	9.162070502061	0
921	0	0	0
921	0	0	0
921	33	0.001878979802	0
921	33	0.001878979802	2
921	34	0.001878979802	2
921	34	0.001878979802	0
921	36	0.001878979802	0
921	36	0.001878979802	0
921	52	0.001932979802	0
921	52	0.001932979802	0
921	96	0.011827807244	0
921	96	0.011827807244	0
921	116	0.011881807244	0
921	116	0.011881807244	0
921	536	0.056843839212	0
921	536	0.056843839212	0
921	576	0.056897839212	0
921	576	0.056897839212	0
921	671	0.077423761534	0
921	671	0.077423761534	0
921	701	0.077477761534	0
921	701	0.077477761534	0
921	737	0.078053307835	0
921	737	0.078053307835	0
921	762	0.078107307835	0
921	762	0.078107307835	0
921	895	3.001878979802	0
921	895	3.001878979802	2
921	896	3.001878979802	2
921	896	3.001878979802	0
921	898	3.001878979802	0
921	898	3.001878979802	0
921	914	3.001932979802	0
921	914	3.001932979802	0
921	958	3.011827807244	0
921	958	3.011827807244	0
921	978	3.011881807244	0
921	978	3.011881807244	0
921	1398	3.056843839212	0
921	1398	3.056843839212	0
921	1438	3.056897839212	0
921	1438	3.056897839212	0
921	1533	3.077423761534	0
921	1533	3.077423761534	0
921	1563	3.077477761534	0
921	1563	3.077477761534	0
921	1599	3.078053307835	0
921	1599	3.078053307835	0
921	1624	3.078107307835	0
921	1624	3.078107307835	0
921	1771	6.001878979802	0
921	1771	6.001878979802	2
921	1772	6.001878979802	2
921	1772	6.001878979802	0
921	1774	6.001878979802	0
921	1774	6.001878979802	0
921	1790	6.001932979802	0
921	1790	6.001932979802	0
921	1834	6.011827807244	0
921	1834	6.011827807244	0
921	1854	6.011881807244	0
921	1854	6.011881807244	0
921	2346	6.056843839212	0
921	2346	6.056843839212	0
921	2386	6.056897839212	0
921	2386	6.056897839212	0
921	2483	6.067609531012	0
921	2483	6.067609531012	0
921	2523	6.067683531012	0
921	2523	6.067683531012	0
921	2554	6.077423761534	0
921	2554	6.077423761534	0
921	2584	6.077477761534	0
921	2584	6.077477761534	0
921	2621	6.078053307835	0
921	2621	6.078053307835	0
921	2646	6.078107307835	0
921	2646	6.078107307835	0
921	2890	6.162070502061	0
921	2890	6.162070502061	2
921	2891	6.162070502061	2
921	2891	6.162070502061	0
921	2893	6.162070502061	0
921	2893	6.162070502061	0
921	2909	6.162136502061	0
921	2909	6.162136502061	0
921	3212	6.339440157101	0
921	3212	6.339440157101	0
921	3237	6.339506157101	0
921	3237	6.339506157101	0
921	3269	6.360316690662	0
921	3269	6.360316690662	0
921	3289	6.360382690662	0
921	3289	6.360382690662	0
921	3328	6.368459481845	0
921	3328	6.368459481845	0
921	3358	6.368529481845	0
921	3358	6.368529481845	0
921	3495	9.001878979802	0
921	3495	9.001878979802	2
921	3496	9.001878979802	2
921	3496	9.001878979802	0
921	3498	9.001878979802	0
921	3498	9.001878979802	0
921	3514	9.001932979802	0
921	3514	9.001932979802	0
921	3558	9.011827807244	0
921	3558	9.011827807244	0
921	3578	9.011881807244	0
921	3578	9.011881807244	0
921	4070	9.056843839212	0
921	4070	9.056843839212	0
921	4110	9.056897839212	0
921	4110	9.056897839212	0
921	4207	9.067609531012	0
921	4207	9.067609531012	0
921	4247	9.067683531012	0
921	4247	9.067683531012	0
921	4278	9.077423761534	0
921	4278	9.077423761534	0
921	4308	9.077477761534	0
921	4308	9.077477761534	0
921	4345	9.078053307835	0
921	4345	9.078053307835	0
921	4370	9.078107307835	0
921	4370	9.078107307835	0
921	4614	9.162070502061	0
921	4614	9.162070502061	2
921	4615	9.162070502061	2
921	4615	9.162070502061	0
921	4617	9.162070502061	0
921	4617	9.162070502061	0
921	4633	9.162136502061	0
921	4633	9.162136502061	0
921	4936	9.339440157101	0
921	4936	9.339440157101	0
921	4961	9.339506157101	0
921	4961	9.339506157101	0
921	4993	9.360316690662	0
921	4993	9.360316690662	0
921	5013	9.360382690662	0
921	5013	9.360382690662	0
921	5052	9.368459481845	0
921	5052	9.368459481845	0
921	5082	9.368529481845	0
921	5082	9.368529481845	0
921	5283	10.000072750519	0
921	5283	10.000072750519	0
921	5302	10.000106750519	0
921	5302	10.000106750519	0
921	5410	10.036007197417	0
921	5410	10.036007197417	0
921	5431	10.036069197417	0
921	5431	10.036069197417	0
921	5432	10.036069197417	0
921	5432	10.036069197417	0
921	5476	10.036113634544	0
921	5476	10.036113634544	0
921	5492	10.036203963453	0
921	5492	10.036203963453	0
921	5509	10.036265963453	0
921	5509	10.036265963453	0
921	5527	10.036275963453	0
921	5527	10.036275963453	0
921	5546	10.036309963453	0
921	5546	10.036309963453	0
923	0	0	31
924	51	0.001932979802	70
924	913	3.001932979802	70
924	1789	6.001932979802	70
924	2908	6.162136502061	108
924	3513	9.001932979802	70
924	4632	9.162136502061	108
924	5545	10.036309963453	14
925	5545	10.036309963453	14
926	51	0.001932979802	70
926	913	3.001932979802	70
926	1789	6.001932979802	70
926	2908	6.162136502061	108
926	3513	9.001932979802	70
926	4632	9.162136502061	108
927	51	0.001932979802	70
927	913	3.001932979802	70
927	1789	6.001932979802	70
927	2908	6.162136502061	108
927	3513	9.001932979802	70
927	4632	9.162136502061	108
929	51	0.001932979802	70
929	913	3.001932979802	70
929	1789	6.001932979802	70
929	2908	6.162136502061	108
929	3513	9.001932979802	70
929	4632	9.162136502061	108
929	5545	10.036309963453	14
930	117	0.011881807244	70
930	577	0.056897839212	70
930	702	0.077477761534	70
930	763	0.078107307835	70
930	979	3.011881807244	70
930	1439	3.056897839212	70
930	1564	3.077477761534	70
930	1625	3.078107307835	70
930	1855	6.011881807244	70
930	2387	6.056897839212	70
930	2524	6.067683531012	132
930	2585	6.077477761534	70
930	2647	6.078107307835	70
930	3238	6.339506157101	108
930	3290	6.360382690662	108
930	3359	6.368529481845	124
930	3579	9.011881807244	70
930	4111	9.056897839212	70
930	4248	9.067683531012	132
930	4309	9.077477761534	70
930	4371	9.078107307835	70
930	4962	9.339506157101	108
930	5014	9.360382690662	108
930	5083	9.368529481845	124
930	5510	10.036265963453	100
931	5510	10.036265963453	100
932	117	0.011881807244	70
932	577	0.056897839212	70
932	702	0.077477761534	70
932	763	0.078107307835	70
932	979	3.011881807244	70
932	1439	3.056897839212	70
932	1564	3.077477761534	70
932	1625	3.078107307835	70
932	1855	6.011881807244	70
932	2387	6.056897839212	70
932	2524	6.067683531012	132
932	2585	6.077477761534	70
932	2647	6.078107307835	70
932	3238	6.339506157101	108
932	3290	6.360382690662	108
932	3359	6.368529481845	124
932	3579	9.011881807244	70
932	4111	9.056897839212	70
932	4248	9.067683531012	132
932	4309	9.077477761534	70
932	4371	9.078107307835	70
932	4962	9.339506157101	108
932	5014	9.360382690662	108
932	5083	9.368529481845	124
933	117	0.011881807244	70
933	577	0.056897839212	70
933	702	0.077477761534	70
933	763	0.078107307835	70
933	979	3.011881807244	70
933	1439	3.056897839212	70
933	1564	3.077477761534	70
933	1625	3.078107307835	70
933	1855	6.011881807244	70
933	2387	6.056897839212	70
933	2524	6.067683531012	132
933	2585	6.077477761534	70
933	2647	6.078107307835	70
933	3238	6.339506157101	108
933	3290	6.360382690662	108
933	3359	6.368529481845	124
933	3579	9.011881807244	70
933	4111	9.056897839212	70
933	4248	9.067683531012	132
933	4309	9.077477761534	70
933	4371	9.078107307835	70
933	4962	9.339506157101	108
933	5014	9.360382690662	108
933	5083	9.368529481845	124
935	117	0.011881807244	70
935	577	0.056897839212	70
935	702	0.077477761534	70
935	763	0.078107307835	70
935	979	3.011881807244	70
935	1439	3.056897839212	70
935	1564	3.077477761534	70
935	1625	3.078107307835	70
935	1855	6.011881807244	70
935	2387	6.056897839212	70
935	2524	6.067683531012	132
935	2585	6.077477761534	70
935	2647	6.078107307835	70
935	3238	6.339506157101	108
935	3290	6.360382690662	108
935	3359	6.368529481845	124
935	3579	9.011881807244	70
935	4111	9.056897839212	70
935	4248	9.067683531012	132
935	4309	9.077477761534	70
935	4371	9.078107307835	70
935	4962	9.339506157101	108
935	5014	9.360382690662	108
935	5083	9.368529481845	124
935	5510	10.036265963453	100
936	5303	10.000106750519	14
936	5432	10.036069197417	100
936	5477	10.036113634544	14
937	5303	10.000106750519	14
937	5432	10.036069197417	100
937	5477	10.036113634544	14
940	0	0	0
940	0	0	0
940	35	0.001878979802	1
940	51	0.001932979802	0
940	897	3.001878979802	1
940	913	3.001932979802	0
940	1773	6.001878979802	1
940	1789	6.001932979802	0
940	2892	6.162070502061	1
940	2908	6.162136502061	0
940	3497	9.001878979802	1
940	3513	9.001932979802	0
940	4616	9.162070502061	1
940	4632	9.162136502061	0
941	35	0.001878979802	24000000
941	897	3.001878979802	24000000
941	1773	6.001878979802	24000000
941	2892	6.162070502061	24000000
941	3497	9.001878979802	24000000
941	4616	9.162070502061	24000000
941	5510	10.036265963453	24000000
942	5432	10.036069197417	0
942	5432	10.036069197417	4.4e-05
942	5464	10.036113197417	0
943	117	0.011881807244	42
943	577	0.056897839212	42
943	702	0.077477761534	42
943	763	0.078107307835	42
943	979	3.011881807244	42
943	1439	3.056897839212	42
943	1564	3.077477761534	42
943	1625	3.078107307835	42
943	1855	6.011881807244	42
943	2387	6.056897839212	42
943	2524	6.067683531012	104
943	2585	6.077477761534	42
943	2647	6.078107307835	42
943	3238	6.339506157101	80
943	3290	6.360382690662	80
943	3359	6.368529481845	96
943	3579	9.011881807244	42
943	4111	9.056897839212	42
943	4248	9.067683531012	104
943	4309	9.077477761534	42
943	4371	9.078107307835	42
943	4962	9.339506157101	80
943	5014	9.360382690662	80
943	5083	9.368529481845	96
943	5510	10.036265963453	72
944	35	0.001878979802	70
944	897	3.001878979802	70
944	1773	6.001878979802	70
944	2892	6.162070502061	108
944	3497	9.001878979802	70
944	4616	9.162070502061	108
944	5526	10.036275963453	14
945	33	0.001878979802	42
945	895	3.001878979802	42
945	1771	6.001878979802	42
945	2890	6.162070502061	80
945	3495	9.001878979802	42
945	4614	9.162070502061	80
946	117	0.011881807244	70
946	577	0.056897839212	70
946	702	0.077477761534	70
946	763	0.078107307835	70
946	979	3.011881807244	70
946	1439	3.056897839212	70
946	1564	3.077477761534	70
946	1625	3.078107307835	70
946	1855	6.011881807244	70
946	2387	6.056897839212	70
946	2524	6.067683531012	132
946	2585	6.077477761534	70
946	2647	6.078107307835	70
946	3238	6.339506157101	108
946	3290	6.360382690662	108
946	3359	6.368529481845	124
946	3579	9.011881807244	70
946	4111	9.056897839212	70
946	4248	9.067683531012	132
946	4309	9.077477761534	70
946	4371	9.078107307835	70
946	4962	9.339506157101	108
946	5014	9.360382690662	108
946	5083	9.368529481845	124
946	5303	10.000106750519	14
946	5432	10.036069197417	100
946	5477	10.036113634544	14
946	5510	10.036265963453	100
947	5303	10.000106750519	14
947	5432	10.036069197417	100
947	5477	10.036113634544	14
949	5303	10.000106750519	14
949	5432	10.036069197417	100
949	5477	10.036113634544	14
954	0	0	0
954	0	0	0
954	0	0	2
954	36	0.001878979802	3
954	52	0.001932979802	2
954	898	3.001878979802	3
954	914	3.001932979802	2
954	1774	6.001878979802	3
954	1790	6.001932979802	2
954	2893	6.162070502061	3
954	2909	6.162136502061	2
954	3498	9.001878979802	3
954	3514	9.001932979802	2
954	4617	9.162070502061	3
954	4633	9.162136502061	2
954	5527	10.036275963453	3
954	5546	10.036309963453	2
955	0	0	1
955	36	0.001878979802	0
955	52	0.001932979802	1
955	96	0.011827807244	3
955	116	0.011881807244	1
955	536	0.056843839212	3
955	576	0.056897839212	1
955	671	0.077423761534	3
955	701	0.077477761534	1
955	737	0.078053307835	3
955	762	0.078107307835	1
955	898	3.001878979802	0
955	914	3.001932979802	1
955	958	3.011827807244	3
955	978	3.011881807244	1
955	1398	3.056843839212	3
955	1438	3.056897839212	1
955	1533	3.077423761534	3
955	1563	3.077477761534	1
955	1599	3.078053307835	3
955	1624	3.078107307835	1
955	1774	6.001878979802	0
955	1790	6.001932979802	1
955	1834	6.011827807244	3
955	1854	6.011881807244	1
955	2346	6.056843839212	3
955	2386	6.056897839212	1
955	2483	6.067609531012	3
955	2523	6.067683531012	1
955	2554	6.077423761534	3
955	2584	6.077477761534	1
955	2621	6.078053307835	3
955	2646	6.078107307835	1
955	2893	6.162070502061	0
955	2909	6.162136502061	1
955	3212	6.339440157101	3
955	3237	6.339506157101	1
955	3269	6.360316690662	3
955	3289	6.360382690662	1
955	3328	6.368459481845	3
955	3358	6.368529481845	1
955	3498	9.001878979802	0
955	3514	9.001932979802	1
955	3558	9.011827807244	3
955	3578	9.011881807244	1
955	4070	9.056843839212	3
955	4110	9.056897839212	1
955	4207	9.067609531012	3
955	4247	9.067683531012	1
955	4278	9.077423761534	3
955	4308	9.077477761534	1
955	4345	9.078053307835	3
955	4370	9.078107307835	1
955	4617	9.162070502061	0
955	4633	9.162136502061	1
955	4936	9.339440157101	3
955	4961	9.339506157101	1
955	4993	9.360316690662	3
955	5013	9.360382690662	1
955	5052	9.368459481845	3
955	5082	9.368529481845	1
955	5283	10.000072750519	3
955	5302	10.000106750519	1
955	5410	10.036007197417	3
955	5431	10.036069197417	1
955	5452	10.036079634544	3
955	5476	10.036113634544	1
955	5492	10.036203963453	3
955	5509	10.036265963453	1
955	5527	10.036275963453	0
955	5546	10.036309963453	1
956	36	0.001878979802	1
956	37	0.001878979802	2
956	51	0.001932979802	1
956	52	0.001932979802	0
956	898	3.001878979802	1
956	899	3.001878979802	2
956	913	3.001932979802	1
956	914	3.001932979802	0
956	1774	6.001878979802	1
956	1775	6.001878979802	2
956	1789	6.001932979802	1
956	1790	6.001932979802	0
956	2893	6.162070502061	1
956	2894	6.162070502061	2
956	2908	6.162136502061	1
956	2909	6.162136502061	0
956	3498	9.001878979802	1
956	3499	9.001878979802	2
956	3513	9.001932979802	1
956	3514	9.001932979802	0
956	4617	9.162070502061	1
956	4618	9.162070502061	2
956	4632	9.162136502061	1
956	4633	9.162136502061	0
956	5527	10.036275963453	1
956	5528	10.036275963453	2
956	5545	10.036309963453	1
956	5546	10.036309963453	0
957	0	0	0
966	30	0.001878979802	14
966	892	3.001878979802	14
966	1768	6.001878979802	14
966	2887	6.162070502061	52
966	3492	9.001878979802	14
966	4611	9.162070502061	52
967	120	0.011881807244	14
967	580	0.056897839212	14
967	705	0.077477761534	14
967	766	0.078107307835	14
967	982	3.011881807244	14
967	1442	3.056897839212	14
967	1567	3.077477761534	14
967	1628	3.078107307835	14
967	1858	6.011881807244	14
967	2390	6.056897839212	14
967	2527	6.067683531012	76
967	2588	6.077477761534	14
967	2650	6.078107307835	14
967	3241	6.339506157101	52
967	3293	6.360382690662	52
967	3362	6.368529481845	68
967	3582	9.011881807244	14
967	4114	9.056897839212	14
967	4251	9.067683531012	76
967	4312	9.077477761534	14
967	4374	9.078107307835	14
967	4965	9.339506157101	52
967	5017	9.360382690662	52
967	5086	9.368529481845	68
967	5513	10.036265963453	44
968	0	0	0
968	120	0.011881807244	1
968	580	0.056897839212	2
968	705	0.077477761534	3
968	766	0.078107307835	4
968	982	3.011881807244	5
968	1442	3.056897839212	6
968	1567	3.077477761534	7
968	1628	3.078107307835	8
968	1858	6.011881807244	9
968	2390	6.056897839212	10
968	2527	6.067683531012	11
968	2588	6.077477761534	12
968	2650	6.078107307835	13
968	3241	6.339506157101	14
968	3293	6.360382690662	15
968	3362	6.368529481845	16
968	3582	9.011881807244	17
968	4114	9.056897839212	18
968	4251	9.067683531012	19
968	4312	9.077477761534	20
968	4374	9.078107307835	21
968	4965	9.339506157101	22
968	5017	9.360382690662	23
968	5086	9.368529481845	24
968	5513	10.036265963453	25
969	0	0	0
970	0	0	0
