version 3
run General-0-20260211-17:46:11-10445
attr configname General
attr datetime 20260211-17:46:11
attr datetimef 20260211-174611
attr experiment General
attr inifile omnetpp.ini
attr iterationvars ""
attr iterationvarsd ""
attr iterationvarsf ""
attr measurement ""
attr network ZrpTestNetworkBig
attr processid 10445
attr repetition 0
attr replication #0
attr resultdir results
attr runnumber 0
attr seedset 0
config image-path ../../../inet-4.5.4/images
config network ZrpTestNetworkBig
config sim-time-limit 100s
config *.configurator.addStaticRoutes false
config **.netmaskRoutes "\"\""
config **.arp.typename GlobalArp
config **.wlan[*].bitrate 24Mbps
config **.transmitter.power 1mW
config **.displayCommunicationRanges true
config *.source.numApps 2
config *.source.app[0].typename PingApp
config *.source.app[0].destAddr "\"destination\""
config *.source.app[0].startTime 10s
config *.source.app[0].sendInterval 1s
config *.source.app[0].printPing true
config *.source.app[1].typename sa_zrp.Zrp
config *.destination.numApps 1
config *.destination.app[0].typename sa_zrp.Zrp
config *.node*.numApps 1
config *.node*.app[0].typename sa_zrp.Zrp
config **.app[*].zoneRadius 2
config **.app[*].NDP_helloInterval 1s
config **.app[*].IARP_updateInterval 2s
config **.app[*].linkStateLifetime 5s
config **.app[*].interface "\"wlan0\""
config **.app[*].debugInterval 5s
config *.visualizer.*.numDataLinkVisualizers 3
config *.visualizer.*.dataLinkVisualizer[*].activityLevel "\"peer\""
config *.visualizer.*.dataLinkVisualizer[*].displayLinks true
config *.visualizer.*.dataLinkVisualizer[0].packetFilter "\"NDP_Hello\""
config *.visualizer.*.dataLinkVisualizer[0].*Color "\"green\""
config *.visualizer.*.dataLinkVisualizer[1].packetFilter "\"IARP_LinkStateUpdate\""
config *.visualizer.*.dataLinkVisualizer[1].*Color "\"orange\""
config *.visualizer.*.dataLinkVisualizer[2].packetFilter "\"ping*\""
config *.visualizer.*.dataLinkVisualizer[2].*Color "\"blue\""
config *.visualizer.*.networkRouteVisualizer[0].displayRoutes true
config *.visualizer.*.networkRouteVisualizer[0].packetFilter "\"*ping*\""
config *.visualizer.*.routingTableVisualizer[0].displayRoutingTables true
config *.visualizer.*.routingTableVisualizer[0].displayLabels false
config *.visualizer.*.routingTableVisualizer[0].displayRoutesIndividually false
config *.visualizer.*.routingTableVisualizer[0].lineShift 0
config *.visualizer.*.interfaceTableVisualizer[0].displayInterfaceTables true
config *.visualizer.*.interfaceTableVisualizer[0].format "\"%a/%l\""
config *.visualizer.*.mediumVisualizer[0].displaySignals true
config *.visualizer.*.mediumVisualizer[0].signalPropagationAnimationSpeed 500
config *.visualizer.*.infoVisualizer[0].displayInfos true
config *.visualizer.*.infoVisualizer[0].modules "\"*.*.app[0]\""
config *.visualizer.*.infoVisualizer[0].format "\"N:%p, Z:%t\""

vector 0 ZrpTestNetworkBig.source.lo[0].lo rcvdPkFromHl:vector(packetBytes) ETV
attr interpolationmode none
attr recordingmode vector(packetBytes)
attr source packetReceivedFromUpper
attr title "packets received from higher layer, packetBytes"
vector 1 ZrpTestNetworkBig.source.lo[0].lo passedUpPk:vector(packetBytes) ETV
attr interpolationmode none
attr recordingmode vector(packetBytes)
attr source packetSentToUpper
attr title "packets passed to higher layer, packetBytes"
vector 2 ZrpTestNetworkBig.source.lo[0] packetDropInterfaceDown:vector(packetBytes) ETV
attr interpolationmode none
attr recordingmode vector(packetBytes)
attr source packetDropReasonIsInterfaceDown(packetDropped)
attr title "packet drops: interface down, packetBytes"
vector 3 ZrpTestNetworkBig.source.lo[0] packetDropNoCarrier:vector(packetBytes) ETV
attr interpolationmode none
attr recordingmode vector(packetBytes)
attr source packetDropReasonIsNoCarrier(packetDropped)
attr title "packet drops: no carrier, packetBytes"
vector 4 ZrpTestNetworkBig.source.wlan[0].mac.dcf.channelAccess.pendingQueue queueLength:vector ETV
attr autoWarmupFilter false
attr interpolationmode sample-hold
attr recordingmode vector
attr source "warmup(atomic(constant0(packetPushEnded) + count(packetPushStarted) - count(packetPulled) - count(packetRemoved) - count(packetDropped)))"
attr title "queue length"
attr unit pk
vector 5 ZrpTestNetworkBig.source.wlan[0].mac.dcf.channelAccess.pendingQueue queueBitLength:vector ETV
attr autoWarmupFilter false
attr interpolationmode sample-hold
attr recordingmode vector
attr source "warmup(atomic(constant0(packetPushEnded) + sum(packetLength(packetPushStarted)) - sum(packetLength(packetPulled)) - sum(packetLength(packetRemoved)) - sum(packetLength(packetDropped))))"
attr title "queue bit length"
attr unit b
vector 6 ZrpTestNetworkBig.source.wlan[0].mac.dcf.channelAccess.pendingQueue queueingTime:vector ETV
attr interpolationmode none
attr recordingmode vector
attr source queueingTime(packetPulled)
attr title "queueing times"
attr unit s
vector 7 ZrpTestNetworkBig.source.wlan[0].mac.dcf.channelAccess.pendingQueue incomingPacketLengths:vector ETV
attr interpolationmode none
attr recordingmode vector
attr source packetLength(packetPushStarted)
attr title "incoming packet lengths"
attr unit b
vector 8 ZrpTestNetworkBig.source.wlan[0].mac.dcf.channelAccess.pendingQueue incomingDataRate:vector ETV
attr interpolationmode linear
attr recordingmode vector
attr source throughput(packetPushStarted)
attr title "incoming datarate"
attr unit bps
vector 9 ZrpTestNetworkBig.source.wlan[0].mac.dcf.channelAccess.pendingQueue outgoingPacketLengths:vector ETV
attr interpolationmode none
attr recordingmode vector
attr source packetLength(packetPulled)
attr title "outgoing packet lengths"
attr unit b
vector 10 ZrpTestNetworkBig.source.wlan[0].mac.dcf.channelAccess.pendingQueue outgoingDataRate:vector ETV
attr interpolationmode linear
attr recordingmode vector
attr source throughput(packetPulled)
attr title "outgoing datarate"
attr unit bps
vector 11 ZrpTestNetworkBig.source.wlan[0].mac.dcf.channelAccess.pendingQueue droppedPacketLengthsQueueOverflow:vector ETV
attr interpolationmode none
attr recordingmode vector
attr source packetLength(packetDropReasonIsQueueOverflow(packetDropped))
attr title "dropped packet lengths: queue overflow"
attr unit b
vector 12 ZrpTestNetworkBig.source.wlan[0].mac.dcf.channelAccess.pendingQueue flowQueueingTime:vector ETV
attr interpolationmode none
attr recordingmode vector
attr source queueingTime(demuxFlow(packetPulled))
attr title "flow queueing times"
attr unit s
vector 13 ZrpTestNetworkBig.source.wlan[0].mac.dcf.channelAccess.pendingQueue flowIncomingDataRate:vector ETV
attr interpolationmode linear
attr recordingmode vector
attr source throughput(flowPacketLength(demuxFlow(packetPushStarted)))
attr title "flow specific incoming data rate"
attr unit bps
vector 14 ZrpTestNetworkBig.source.wlan[0].mac.dcf.channelAccess.pendingQueue flowOutgoingDataRate:vector ETV
attr interpolationmode linear
attr recordingmode vector
attr source throughput(flowPacketLength(demuxFlow(packetPulled)))
attr title "flow specific outgoing data rate"
attr unit bps
vector 15 ZrpTestNetworkBig.source.wlan[0].mac.dcf.channelAccess.inProgressFrames queueingTime:vector ETV
attr interpolationmode none
attr recordingmode vector
attr source queueingTime(packetDequeued)
attr title "queueing times"
vector 16 ZrpTestNetworkBig.source.wlan[0].mac.dcf.channelAccess.inProgressFrames queueLength:vector ETV
attr autoWarmupFilter false
attr interpolationmode sample-hold
attr recordingmode vector
attr source "warmup(count(packetEnqueued) - count(packetDequeued))"
attr title "queue length"
vector 17 ZrpTestNetworkBig.source.wlan[0].mac.dcf.channelAccess.contention backoffPeriodGenerated:vector ETV
attr interpolationmode none
attr recordingmode vector
attr title "backoff periods"
vector 18 ZrpTestNetworkBig.source.wlan[0].mac.dcf.channelAccess.contention backoffActive:vector ETV
attr autoWarmupFilter false
attr interpolationmode sample-hold
attr recordingmode vector
attr source warmup(count(backoffStarted)-count(backoffStopped))
attr title "backoff active"
vector 19 ZrpTestNetworkBig.source.wlan[0].mac.dcf.channelAccess.contention stateChanged:vector ETV
attr enum IDLE,DEFER,IFS_AND_BACKOFF
attr interpolationmode none
attr recordingmode vector
attr title "contention state changed"
attr type enum
vector 20 ZrpTestNetworkBig.source.wlan[0].mac.dcf.recipientMacDataService packetDropDuplicateDetected:vector(packetBytes) ETV
attr interpolationmode none
attr recordingmode vector(packetBytes)
attr source packetDropReasonIsDuplicateDetected(packetDropped)
attr title "packet drops: duplicate detected, packetBytes"
vector 21 ZrpTestNetworkBig.source.wlan[0].mac.dcf.recoveryProcedure contentionWindowChanged:vector ETV
attr interpolationmode sample-hold
attr recordingmode vector
attr title "contention window"
vector 22 ZrpTestNetworkBig.source.wlan[0].mac.dcf packetSentToPeer:vector(packetBytes) ETV
attr interpolationmode none
attr recordingmode vector(packetBytes)
attr title "packets sent, packetBytes"
vector 23 ZrpTestNetworkBig.source.wlan[0].mac.dcf packetSentToPeerUnicast:vector(packetBytes) ETV
attr interpolationmode none
attr recordingmode vector(packetBytes)
attr source ieee80211Unicast(packetSentToPeer)
attr title "packets sent: unicast, packetBytes"
vector 24 ZrpTestNetworkBig.source.wlan[0].mac.dcf packetSentToPeerMulticast:vector(packetBytes) ETV
attr interpolationmode none
attr recordingmode vector(packetBytes)
attr source ieee80211Multicast(packetSentToPeer)
attr title "packets sent: multicast, packetBytes"
vector 25 ZrpTestNetworkBig.source.wlan[0].mac.dcf packetSentToPeerBroadcast:vector(packetBytes) ETV
attr interpolationmode none
attr recordingmode vector(packetBytes)
attr source ieee80211Broadcast(packetSentToPeer)
attr title "packets sent: broadcast , packetBytes"
vector 26 ZrpTestNetworkBig.source.wlan[0].mac.dcf packetSentToPeerWithRetry:vector(packetBytes) ETV
attr interpolationmode none
attr recordingmode vector(packetBytes)
attr source ieee80211Retry(packetSentToPeer)
attr title "packets sent: with retry, packetBytes"
vector 27 ZrpTestNetworkBig.source.wlan[0].mac.dcf packetSentToPeerWithoutRetry:vector(packetBytes) ETV
attr interpolationmode none
attr recordingmode vector(packetBytes)
attr source ieee80211NotRetry(packetSentToPeer)
attr title "packets sent: without retry, packetBytes"
vector 28 ZrpTestNetworkBig.source.wlan[0].mac.dcf packetReceivedFromPeer:vector(packetBytes) ETV
attr interpolationmode none
attr recordingmode vector(packetBytes)
attr title "packets received, packetBytes"
vector 29 ZrpTestNetworkBig.source.wlan[0].mac.dcf packetReceivedFromPeerUnicast:vector(packetBytes) ETV
attr interpolationmode none
attr recordingmode vector(packetBytes)
attr source ieee80211Unicast(packetReceivedFromPeer)
attr title "packets received: unicast, packetBytes"
vector 30 ZrpTestNetworkBig.source.wlan[0].mac.dcf packetReceivedFromPeerMulticast:vector(packetBytes) ETV
attr interpolationmode none
attr recordingmode vector(packetBytes)
attr source ieee80211Multicast(packetReceivedFromPeer)
attr title "packets received: multicast, packetBytes"
vector 31 ZrpTestNetworkBig.source.wlan[0].mac.dcf packetReceivedFromPeerBroadcast:vector(packetBytes) ETV
attr interpolationmode none
attr recordingmode vector(packetBytes)
attr source ieee80211Broadcast(packetReceivedFromPeer)
attr title "packets received: broadcast, packetBytes"
vector 32 ZrpTestNetworkBig.source.wlan[0].mac.dcf packetReceivedFromPeerWithRetry:vector(packetBytes) ETV
attr interpolationmode none
attr recordingmode vector(packetBytes)
attr source ieee80211Retry(packetReceivedFromPeer)
attr title "packets received: with retry, packetBytes"
vector 33 ZrpTestNetworkBig.source.wlan[0].mac.dcf packetReceivedFromPeerWithoutRetry:vector(packetBytes) ETV
attr interpolationmode none
attr recordingmode vector(packetBytes)
attr source ieee80211NotRetry(packetReceivedFromPeer)
attr title "packets received: without retry, packetBytes"
vector 34 ZrpTestNetworkBig.source.wlan[0].mac.dcf packetDrop:vector(packetBytes) ETV
attr interpolationmode none
attr recordingmode vector(packetBytes)
attr source packetDropped
attr title "packet drops, packetBytes"
vector 35 ZrpTestNetworkBig.source.wlan[0].mac.dcf packetDropNotAddressedToUs:vector(packetBytes) ETV
attr interpolationmode none
attr recordingmode vector(packetBytes)
attr source packetDropReasonIsNotAddressedToUs(packetDropped)
attr title "packet drops: not addressed to us, packetBytes"
vector 36 ZrpTestNetworkBig.source.wlan[0].mac.dcf packetDropQueueOverflow:vector(packetBytes) ETV
attr interpolationmode none
attr recordingmode vector(packetBytes)
attr source packetDropReasonIsQueueOverflow(packetDropped)
attr title "packet drops: queue overflow, packetBytes"
vector 37 ZrpTestNetworkBig.source.wlan[0].mac.dcf packetDropRetryLimitReached:vector(packetBytes) ETV
attr interpolationmode none
attr recordingmode vector(packetBytes)
attr source packetDropReasonIsRetryLimitReached(packetDropped)
attr title "packet drops: retry limit reached, packetBytes"
vector 38 ZrpTestNetworkBig.source.wlan[0].mac.dcf frameSequenceActive:vector ETV
attr autoWarmupFilter false
attr interpolationmode sample-hold
attr recordingmode vector
attr source warmup(count(frameSequenceStarted)-count(frameSequenceFinished))
attr title "frame sequence active"
vector 39 ZrpTestNetworkBig.source.wlan[0].mac.dcf datarateSelected:vector ETV
attr interpolationmode none
attr recordingmode vector
attr title "datarates selected"
vector 40 ZrpTestNetworkBig.source.wlan[0].mac.rx nav:vector ETV
attr interpolationmode linear
attr recordingmode vector
attr source navChanged
attr title "network allocation vector"
vector 41 ZrpTestNetworkBig.source.wlan[0].mac packetSentToUpper:vector(packetBytes) ETV
attr interpolationmode none
attr recordingmode vector(packetBytes)
attr title "packets sent to upper layer, packetBytes"
vector 42 ZrpTestNetworkBig.source.wlan[0].mac packetSentToLower:vector(packetBytes) ETV
attr interpolationmode none
attr recordingmode vector(packetBytes)
attr title "packets sent to lower layer, packetBytes"
vector 43 ZrpTestNetworkBig.source.wlan[0].mac packetReceivedFromUpper:vector(packetBytes) ETV
attr interpolationmode none
attr recordingmode vector(packetBytes)
attr title "packets received from upper layer, packetBytes"
vector 44 ZrpTestNetworkBig.source.wlan[0].mac packetReceivedFromLower:vector(packetBytes) ETV
attr interpolationmode none
attr recordingmode vector(packetBytes)
attr title "packets received from lower layer, packetBytes"
vector 45 ZrpTestNetworkBig.source.wlan[0].mac packetDrop:vector(packetBytes) ETV
attr interpolationmode none
attr recordingmode vector(packetBytes)
attr source packetDropped
attr title "packet drops, packetBytes"
vector 46 ZrpTestNetworkBig.source.wlan[0].mac packetDropIncorrectlyReceived:vector(packetBytes) ETV
attr interpolationmode none
attr recordingmode vector(packetBytes)
attr source packetDropReasonIsIncorrectlyReceived(packetDropped)
attr title "packet drops: incorrectly received, packetBytes"
vector 47 ZrpTestNetworkBig.source.wlan[0].mac packetDropNotAddressedToUs:vector(packetBytes) ETV
attr interpolationmode none
attr recordingmode vector(packetBytes)
attr source packetDropReasonIsNotAddressedToUs(packetDropped)
attr title "packet drops: not addressed to us, packetBytes"
vector 48 ZrpTestNetworkBig.source.wlan[0].mac packetDropQueueOverflow:vector(packetBytes) ETV
attr interpolationmode none
attr recordingmode vector(packetBytes)
attr source packetDropReasonIsQueueOverflow(packetDropped)
attr title "packet drops: queue overflow, packetBytes"
vector 49 ZrpTestNetworkBig.source.wlan[0].mac packetDropRetryLimitReached:vector(packetBytes) ETV
attr interpolationmode none
attr recordingmode vector(packetBytes)
attr source packetDropReasonIsRetryLimitReached(packetDropped)
attr title "packet drops: retry limit reached, packetBytes"
vector 50 ZrpTestNetworkBig.source.wlan[0].mac packetDropDuplicateDetected:vector(packetBytes) ETV
attr interpolationmode none
attr recordingmode vector(packetBytes)
attr source packetDropReasonIsDuplicateDetected(packetDropped)
attr title "packet drops: duplicate detected, packetBytes"
vector 51 ZrpTestNetworkBig.source.wlan[0].mac packetDropOther:vector(packetBytes) ETV
attr interpolationmode none
attr recordingmode vector(packetBytes)
attr source packetDropReasonIsOther(packetDropped)
attr title "packet drops: other, packetBytes"
vector 52 ZrpTestNetworkBig.source.wlan[0].radio radioMode:vector ETV
attr interpolationmode sample-hold
attr recordingmode vector
attr source radioModeChanged
attr title "Radio mode"
vector 53 ZrpTestNetworkBig.source.wlan[0].radio receptionState:vector ETV
attr interpolationmode sample-hold
attr recordingmode vector
attr source receptionStateChanged
attr title "Radio reception state"
vector 54 ZrpTestNetworkBig.source.wlan[0].radio transmissionState:vector ETV
attr interpolationmode sample-hold
attr recordingmode vector
attr source transmissionStateChanged
attr title "Radio transmission state"
vector 55 ZrpTestNetworkBig.source.wlan[0].radio radioChannel:vector ETV
attr interpolationmode sample-hold
attr recordingmode vector
attr source radioChannelChanged
attr title "Radio channel"
vector 56 ZrpTestNetworkBig.source.wlan[0] packetDropInterfaceDown:vector(packetBytes) ETV
attr interpolationmode none
attr recordingmode vector(packetBytes)
attr source packetDropReasonIsInterfaceDown(packetDropped)
attr title "packet drops: interface down, packetBytes"
vector 57 ZrpTestNetworkBig.source.wlan[0] packetDropNoCarrier:vector(packetBytes) ETV
attr interpolationmode none
attr recordingmode vector(packetBytes)
attr source packetDropReasonIsNoCarrier(packetDropped)
attr title "packet drops: no carrier, packetBytes"
vector 58 ZrpTestNetworkBig.source.ipv4.ip packetDropAddressResolutionFailed:vector(packetBytes) ETV
attr interpolationmode none
attr recordingmode vector(packetBytes)
attr source packetDropReasonIsAddressResolutionFailed(packetDropped)
attr title "packet drop: address resolution failed, packetBytes"
vector 59 ZrpTestNetworkBig.source.ipv4.ip packetDropHopLimitReached:vector(packetBytes) ETV
attr interpolationmode none
attr recordingmode vector(packetBytes)
attr source packetDropReasonIsHopLimitReached(packetDropped)
attr title "packet drop: hop limit reached, packetBytes"
vector 60 ZrpTestNetworkBig.source.ipv4.ip packetDropForwardingDisabled:vector(packetBytes) ETV
attr interpolationmode none
attr recordingmode vector(packetBytes)
attr source packetDropReasonIsForwardingDisabled(packetDropped)
attr title "packet drop: forwarding disabled, packetBytes"
vector 61 ZrpTestNetworkBig.source.ipv4.ip packetDropNoInterfaceFound:vector(packetBytes) ETV
attr interpolationmode none
attr recordingmode vector(packetBytes)
attr source packetDropReasonIsNoInterfaceFound(packetDropped)
attr title "packet drop: no interface found, packetBytes"
vector 62 ZrpTestNetworkBig.source.ipv4.ip packetDropNoRouteFound:vector(packetBytes) ETV
attr interpolationmode none
attr recordingmode vector(packetBytes)
attr source packetDropReasonIsNoRouteFound(packetDropped)
attr title "packet drop: no route found, packetBytes"
vector 63 ZrpTestNetworkBig.source.ipv4.ip packetDropUndefined:vector(packetBytes) ETV
attr interpolationmode none
attr recordingmode vector(packetBytes)
attr source packetDropReasonIsUndefined(packetDropped)
attr title "packet drop: undefined, packetBytes"
vector 64 ZrpTestNetworkBig.source.udp packetSent:vector(packetBytes) ETV
attr interpolationmode none
attr recordingmode vector(packetBytes)
attr source packetSent
attr title "packets sent, packetBytes"
vector 65 ZrpTestNetworkBig.source.udp packetReceived:vector(packetBytes) ETV
attr interpolationmode none
attr recordingmode vector(packetBytes)
attr source packetReceived
attr title "packets received, packetBytes"
vector 66 ZrpTestNetworkBig.source.udp passedUpPk:vector(count) ETV
attr interpolationmode none
attr recordingmode vector(count)
attr source packetSentToUpper
attr title "packets passed up, count"
vector 67 ZrpTestNetworkBig.source.udp droppedPkWrongPort:vector(count) ETV
attr interpolationmode none
attr recordingmode vector(count)
attr source packetDropReasonIsNoPortFound(packetDropped)
attr title "packets dropped (wrong port), count"
vector 68 ZrpTestNetworkBig.source.udp droppedPkBadChecksum:vector(count) ETV
attr interpolationmode none
attr recordingmode vector(count)
attr source packetDropReasonIsIncorrectlyReceived(packetDropped)
attr title "packets dropped (checksum error), count"
vector 69 ZrpTestNetworkBig.source.app[0] rtt:vector ETV
attr interpolationmode none
attr recordingmode vector
attr title "ping round-trip time"
attr unit s
vector 70 ZrpTestNetworkBig.source.app[0] numLost:vector ETV
attr interpolationmode none
attr recordingmode vector
attr title "pings lost"
vector 71 ZrpTestNetworkBig.source.app[0] numOutOfOrderArrivals:vector ETV
attr interpolationmode none
attr recordingmode vector
attr title "ping out-of-order arrivals"
vector 72 ZrpTestNetworkBig.source.app[0] pingTxSeq:vector ETV
attr interpolationmode none
attr recordingmode vector
attr title "ping tx seq"
vector 73 ZrpTestNetworkBig.source.app[0] pingRxSeq:vector ETV
attr interpolationmode none
attr recordingmode vector
attr title "ping rx seq"
vector 74 ZrpTestNetworkBig.destination.lo[0].lo rcvdPkFromHl:vector(packetBytes) ETV
attr interpolationmode none
attr recordingmode vector(packetBytes)
attr source packetReceivedFromUpper
attr title "packets received from higher layer, packetBytes"
vector 75 ZrpTestNetworkBig.destination.lo[0].lo passedUpPk:vector(packetBytes) ETV
attr interpolationmode none
attr recordingmode vector(packetBytes)
attr source packetSentToUpper
attr title "packets passed to higher layer, packetBytes"
vector 76 ZrpTestNetworkBig.destination.lo[0] packetDropInterfaceDown:vector(packetBytes) ETV
attr interpolationmode none
attr recordingmode vector(packetBytes)
attr source packetDropReasonIsInterfaceDown(packetDropped)
attr title "packet drops: interface down, packetBytes"
vector 77 ZrpTestNetworkBig.destination.lo[0] packetDropNoCarrier:vector(packetBytes) ETV
attr interpolationmode none
attr recordingmode vector(packetBytes)
attr source packetDropReasonIsNoCarrier(packetDropped)
attr title "packet drops: no carrier, packetBytes"
vector 78 ZrpTestNetworkBig.destination.wlan[0].mac.dcf.channelAccess.pendingQueue queueLength:vector ETV
attr autoWarmupFilter false
attr interpolationmode sample-hold
attr recordingmode vector
attr source "warmup(atomic(constant0(packetPushEnded) + count(packetPushStarted) - count(packetPulled) - count(packetRemoved) - count(packetDropped)))"
attr title "queue length"
attr unit pk
vector 79 ZrpTestNetworkBig.destination.wlan[0].mac.dcf.channelAccess.pendingQueue queueBitLength:vector ETV
attr autoWarmupFilter false
attr interpolationmode sample-hold
attr recordingmode vector
attr source "warmup(atomic(constant0(packetPushEnded) + sum(packetLength(packetPushStarted)) - sum(packetLength(packetPulled)) - sum(packetLength(packetRemoved)) - sum(packetLength(packetDropped))))"
attr title "queue bit length"
attr unit b
vector 80 ZrpTestNetworkBig.destination.wlan[0].mac.dcf.channelAccess.pendingQueue queueingTime:vector ETV
attr interpolationmode none
attr recordingmode vector
attr source queueingTime(packetPulled)
attr title "queueing times"
attr unit s
vector 81 ZrpTestNetworkBig.destination.wlan[0].mac.dcf.channelAccess.pendingQueue incomingPacketLengths:vector ETV
attr interpolationmode none
attr recordingmode vector
attr source packetLength(packetPushStarted)
attr title "incoming packet lengths"
attr unit b
vector 82 ZrpTestNetworkBig.destination.wlan[0].mac.dcf.channelAccess.pendingQueue incomingDataRate:vector ETV
attr interpolationmode linear
attr recordingmode vector
attr source throughput(packetPushStarted)
attr title "incoming datarate"
attr unit bps
vector 83 ZrpTestNetworkBig.destination.wlan[0].mac.dcf.channelAccess.pendingQueue outgoingPacketLengths:vector ETV
attr interpolationmode none
attr recordingmode vector
attr source packetLength(packetPulled)
attr title "outgoing packet lengths"
attr unit b
vector 84 ZrpTestNetworkBig.destination.wlan[0].mac.dcf.channelAccess.pendingQueue outgoingDataRate:vector ETV
attr interpolationmode linear
attr recordingmode vector
attr source throughput(packetPulled)
attr title "outgoing datarate"
attr unit bps
vector 85 ZrpTestNetworkBig.destination.wlan[0].mac.dcf.channelAccess.pendingQueue droppedPacketLengthsQueueOverflow:vector ETV
attr interpolationmode none
attr recordingmode vector
attr source packetLength(packetDropReasonIsQueueOverflow(packetDropped))
attr title "dropped packet lengths: queue overflow"
attr unit b
vector 86 ZrpTestNetworkBig.destination.wlan[0].mac.dcf.channelAccess.pendingQueue flowQueueingTime:vector ETV
attr interpolationmode none
attr recordingmode vector
attr source queueingTime(demuxFlow(packetPulled))
attr title "flow queueing times"
attr unit s
vector 87 ZrpTestNetworkBig.destination.wlan[0].mac.dcf.channelAccess.pendingQueue flowIncomingDataRate:vector ETV
attr interpolationmode linear
attr recordingmode vector
attr source throughput(flowPacketLength(demuxFlow(packetPushStarted)))
attr title "flow specific incoming data rate"
attr unit bps
vector 88 ZrpTestNetworkBig.destination.wlan[0].mac.dcf.channelAccess.pendingQueue flowOutgoingDataRate:vector ETV
attr interpolationmode linear
attr recordingmode vector
attr source throughput(flowPacketLength(demuxFlow(packetPulled)))
attr title "flow specific outgoing data rate"
attr unit bps
vector 89 ZrpTestNetworkBig.destination.wlan[0].mac.dcf.channelAccess.inProgressFrames queueingTime:vector ETV
attr interpolationmode none
attr recordingmode vector
attr source queueingTime(packetDequeued)
attr title "queueing times"
vector 90 ZrpTestNetworkBig.destination.wlan[0].mac.dcf.channelAccess.inProgressFrames queueLength:vector ETV
attr autoWarmupFilter false
attr interpolationmode sample-hold
attr recordingmode vector
attr source "warmup(count(packetEnqueued) - count(packetDequeued))"
attr title "queue length"
vector 91 ZrpTestNetworkBig.destination.wlan[0].mac.dcf.channelAccess.contention backoffPeriodGenerated:vector ETV
attr interpolationmode none
attr recordingmode vector
attr title "backoff periods"
vector 92 ZrpTestNetworkBig.destination.wlan[0].mac.dcf.channelAccess.contention backoffActive:vector ETV
attr autoWarmupFilter false
attr interpolationmode sample-hold
attr recordingmode vector
attr source warmup(count(backoffStarted)-count(backoffStopped))
attr title "backoff active"
vector 93 ZrpTestNetworkBig.destination.wlan[0].mac.dcf.channelAccess.contention stateChanged:vector ETV
attr enum IDLE,DEFER,IFS_AND_BACKOFF
attr interpolationmode none
attr recordingmode vector
attr title "contention state changed"
attr type enum
vector 94 ZrpTestNetworkBig.destination.wlan[0].mac.dcf.recipientMacDataService packetDropDuplicateDetected:vector(packetBytes) ETV
attr interpolationmode none
attr recordingmode vector(packetBytes)
attr source packetDropReasonIsDuplicateDetected(packetDropped)
attr title "packet drops: duplicate detected, packetBytes"
vector 95 ZrpTestNetworkBig.destination.wlan[0].mac.dcf.recoveryProcedure contentionWindowChanged:vector ETV
attr interpolationmode sample-hold
attr recordingmode vector
attr title "contention window"
vector 96 ZrpTestNetworkBig.destination.wlan[0].mac.dcf packetSentToPeer:vector(packetBytes) ETV
attr interpolationmode none
attr recordingmode vector(packetBytes)
attr title "packets sent, packetBytes"
vector 97 ZrpTestNetworkBig.destination.wlan[0].mac.dcf packetSentToPeerUnicast:vector(packetBytes) ETV
attr interpolationmode none
attr recordingmode vector(packetBytes)
attr source ieee80211Unicast(packetSentToPeer)
attr title "packets sent: unicast, packetBytes"
vector 98 ZrpTestNetworkBig.destination.wlan[0].mac.dcf packetSentToPeerMulticast:vector(packetBytes) ETV
attr interpolationmode none
attr recordingmode vector(packetBytes)
attr source ieee80211Multicast(packetSentToPeer)
attr title "packets sent: multicast, packetBytes"
vector 99 ZrpTestNetworkBig.destination.wlan[0].mac.dcf packetSentToPeerBroadcast:vector(packetBytes) ETV
attr interpolationmode none
attr recordingmode vector(packetBytes)
attr source ieee80211Broadcast(packetSentToPeer)
attr title "packets sent: broadcast , packetBytes"
vector 100 ZrpTestNetworkBig.destination.wlan[0].mac.dcf packetSentToPeerWithRetry:vector(packetBytes) ETV
attr interpolationmode none
attr recordingmode vector(packetBytes)
attr source ieee80211Retry(packetSentToPeer)
attr title "packets sent: with retry, packetBytes"
vector 101 ZrpTestNetworkBig.destination.wlan[0].mac.dcf packetSentToPeerWithoutRetry:vector(packetBytes) ETV
attr interpolationmode none
attr recordingmode vector(packetBytes)
attr source ieee80211NotRetry(packetSentToPeer)
attr title "packets sent: without retry, packetBytes"
vector 102 ZrpTestNetworkBig.destination.wlan[0].mac.dcf packetReceivedFromPeer:vector(packetBytes) ETV
attr interpolationmode none
attr recordingmode vector(packetBytes)
attr title "packets received, packetBytes"
vector 103 ZrpTestNetworkBig.destination.wlan[0].mac.dcf packetReceivedFromPeerUnicast:vector(packetBytes) ETV
attr interpolationmode none
attr recordingmode vector(packetBytes)
attr source ieee80211Unicast(packetReceivedFromPeer)
attr title "packets received: unicast, packetBytes"
vector 104 ZrpTestNetworkBig.destination.wlan[0].mac.dcf packetReceivedFromPeerMulticast:vector(packetBytes) ETV
attr interpolationmode none
attr recordingmode vector(packetBytes)
attr source ieee80211Multicast(packetReceivedFromPeer)
attr title "packets received: multicast, packetBytes"
vector 105 ZrpTestNetworkBig.destination.wlan[0].mac.dcf packetReceivedFromPeerBroadcast:vector(packetBytes) ETV
attr interpolationmode none
attr recordingmode vector(packetBytes)
attr source ieee80211Broadcast(packetReceivedFromPeer)
attr title "packets received: broadcast, packetBytes"
vector 106 ZrpTestNetworkBig.destination.wlan[0].mac.dcf packetReceivedFromPeerWithRetry:vector(packetBytes) ETV
attr interpolationmode none
attr recordingmode vector(packetBytes)
attr source ieee80211Retry(packetReceivedFromPeer)
attr title "packets received: with retry, packetBytes"
vector 107 ZrpTestNetworkBig.destination.wlan[0].mac.dcf packetReceivedFromPeerWithoutRetry:vector(packetBytes) ETV
attr interpolationmode none
attr recordingmode vector(packetBytes)
attr source ieee80211NotRetry(packetReceivedFromPeer)
attr title "packets received: without retry, packetBytes"
vector 108 ZrpTestNetworkBig.destination.wlan[0].mac.dcf packetDrop:vector(packetBytes) ETV
attr interpolationmode none
attr recordingmode vector(packetBytes)
attr source packetDropped
attr title "packet drops, packetBytes"
vector 109 ZrpTestNetworkBig.destination.wlan[0].mac.dcf packetDropNotAddressedToUs:vector(packetBytes) ETV
attr interpolationmode none
attr recordingmode vector(packetBytes)
attr source packetDropReasonIsNotAddressedToUs(packetDropped)
attr title "packet drops: not addressed to us, packetBytes"
vector 110 ZrpTestNetworkBig.destination.wlan[0].mac.dcf packetDropQueueOverflow:vector(packetBytes) ETV
attr interpolationmode none
attr recordingmode vector(packetBytes)
attr source packetDropReasonIsQueueOverflow(packetDropped)
attr title "packet drops: queue overflow, packetBytes"
vector 111 ZrpTestNetworkBig.destination.wlan[0].mac.dcf packetDropRetryLimitReached:vector(packetBytes) ETV
attr interpolationmode none
attr recordingmode vector(packetBytes)
attr source packetDropReasonIsRetryLimitReached(packetDropped)
attr title "packet drops: retry limit reached, packetBytes"
vector 112 ZrpTestNetworkBig.destination.wlan[0].mac.dcf frameSequenceActive:vector ETV
attr autoWarmupFilter false
attr interpolationmode sample-hold
attr recordingmode vector
attr source warmup(count(frameSequenceStarted)-count(frameSequenceFinished))
attr title "frame sequence active"
vector 113 ZrpTestNetworkBig.destination.wlan[0].mac.dcf datarateSelected:vector ETV
attr interpolationmode none
attr recordingmode vector
attr title "datarates selected"
vector 114 ZrpTestNetworkBig.destination.wlan[0].mac.rx nav:vector ETV
attr interpolationmode linear
attr recordingmode vector
attr source navChanged
attr title "network allocation vector"
vector 115 ZrpTestNetworkBig.destination.wlan[0].mac packetSentToUpper:vector(packetBytes) ETV
attr interpolationmode none
attr recordingmode vector(packetBytes)
attr title "packets sent to upper layer, packetBytes"
vector 116 ZrpTestNetworkBig.destination.wlan[0].mac packetSentToLower:vector(packetBytes) ETV
attr interpolationmode none
attr recordingmode vector(packetBytes)
attr title "packets sent to lower layer, packetBytes"
vector 117 ZrpTestNetworkBig.destination.wlan[0].mac packetReceivedFromUpper:vector(packetBytes) ETV
attr interpolationmode none
attr recordingmode vector(packetBytes)
attr title "packets received from upper layer, packetBytes"
vector 118 ZrpTestNetworkBig.destination.wlan[0].mac packetReceivedFromLower:vector(packetBytes) ETV
attr interpolationmode none
attr recordingmode vector(packetBytes)
attr title "packets received from lower layer, packetBytes"
vector 119 ZrpTestNetworkBig.destination.wlan[0].mac packetDrop:vector(packetBytes) ETV
attr interpolationmode none
attr recordingmode vector(packetBytes)
attr source packetDropped
attr title "packet drops, packetBytes"
vector 120 ZrpTestNetworkBig.destination.wlan[0].mac packetDropIncorrectlyReceived:vector(packetBytes) ETV
attr interpolationmode none
attr recordingmode vector(packetBytes)
attr source packetDropReasonIsIncorrectlyReceived(packetDropped)
attr title "packet drops: incorrectly received, packetBytes"
vector 121 ZrpTestNetworkBig.destination.wlan[0].mac packetDropNotAddressedToUs:vector(packetBytes) ETV
attr interpolationmode none
attr recordingmode vector(packetBytes)
attr source packetDropReasonIsNotAddressedToUs(packetDropped)
attr title "packet drops: not addressed to us, packetBytes"
vector 122 ZrpTestNetworkBig.destination.wlan[0].mac packetDropQueueOverflow:vector(packetBytes) ETV
attr interpolationmode none
attr recordingmode vector(packetBytes)
attr source packetDropReasonIsQueueOverflow(packetDropped)
attr title "packet drops: queue overflow, packetBytes"
vector 123 ZrpTestNetworkBig.destination.wlan[0].mac packetDropRetryLimitReached:vector(packetBytes) ETV
attr interpolationmode none
attr recordingmode vector(packetBytes)
attr source packetDropReasonIsRetryLimitReached(packetDropped)
attr title "packet drops: retry limit reached, packetBytes"
vector 124 ZrpTestNetworkBig.destination.wlan[0].mac packetDropDuplicateDetected:vector(packetBytes) ETV
attr interpolationmode none
attr recordingmode vector(packetBytes)
attr source packetDropReasonIsDuplicateDetected(packetDropped)
attr title "packet drops: duplicate detected, packetBytes"
vector 125 ZrpTestNetworkBig.destination.wlan[0].mac packetDropOther:vector(packetBytes) ETV
attr interpolationmode none
attr recordingmode vector(packetBytes)
attr source packetDropReasonIsOther(packetDropped)
attr title "packet drops: other, packetBytes"
vector 126 ZrpTestNetworkBig.destination.wlan[0].radio radioMode:vector ETV
attr interpolationmode sample-hold
attr recordingmode vector
attr source radioModeChanged
attr title "Radio mode"
vector 127 ZrpTestNetworkBig.destination.wlan[0].radio receptionState:vector ETV
attr interpolationmode sample-hold
attr recordingmode vector
attr source receptionStateChanged
attr title "Radio reception state"
vector 128 ZrpTestNetworkBig.destination.wlan[0].radio transmissionState:vector ETV
attr interpolationmode sample-hold
attr recordingmode vector
attr source transmissionStateChanged
attr title "Radio transmission state"
vector 129 ZrpTestNetworkBig.destination.wlan[0].radio radioChannel:vector ETV
attr interpolationmode sample-hold
attr recordingmode vector
attr source radioChannelChanged
attr title "Radio channel"
vector 130 ZrpTestNetworkBig.destination.wlan[0] packetDropInterfaceDown:vector(packetBytes) ETV
attr interpolationmode none
attr recordingmode vector(packetBytes)
attr source packetDropReasonIsInterfaceDown(packetDropped)
attr title "packet drops: interface down, packetBytes"
vector 131 ZrpTestNetworkBig.destination.wlan[0] packetDropNoCarrier:vector(packetBytes) ETV
attr interpolationmode none
attr recordingmode vector(packetBytes)
attr source packetDropReasonIsNoCarrier(packetDropped)
attr title "packet drops: no carrier, packetBytes"
vector 132 ZrpTestNetworkBig.destination.ipv4.ip packetDropAddressResolutionFailed:vector(packetBytes) ETV
attr interpolationmode none
attr recordingmode vector(packetBytes)
attr source packetDropReasonIsAddressResolutionFailed(packetDropped)
attr title "packet drop: address resolution failed, packetBytes"
vector 133 ZrpTestNetworkBig.destination.ipv4.ip packetDropHopLimitReached:vector(packetBytes) ETV
attr interpolationmode none
attr recordingmode vector(packetBytes)
attr source packetDropReasonIsHopLimitReached(packetDropped)
attr title "packet drop: hop limit reached, packetBytes"
vector 134 ZrpTestNetworkBig.destination.ipv4.ip packetDropForwardingDisabled:vector(packetBytes) ETV
attr interpolationmode none
attr recordingmode vector(packetBytes)
attr source packetDropReasonIsForwardingDisabled(packetDropped)
attr title "packet drop: forwarding disabled, packetBytes"
vector 135 ZrpTestNetworkBig.destination.ipv4.ip packetDropNoInterfaceFound:vector(packetBytes) ETV
attr interpolationmode none
attr recordingmode vector(packetBytes)
attr source packetDropReasonIsNoInterfaceFound(packetDropped)
attr title "packet drop: no interface found, packetBytes"
vector 136 ZrpTestNetworkBig.destination.ipv4.ip packetDropNoRouteFound:vector(packetBytes) ETV
attr interpolationmode none
attr recordingmode vector(packetBytes)
attr source packetDropReasonIsNoRouteFound(packetDropped)
attr title "packet drop: no route found, packetBytes"
vector 137 ZrpTestNetworkBig.destination.ipv4.ip packetDropUndefined:vector(packetBytes) ETV
attr interpolationmode none
attr recordingmode vector(packetBytes)
attr source packetDropReasonIsUndefined(packetDropped)
attr title "packet drop: undefined, packetBytes"
vector 138 ZrpTestNetworkBig.destination.udp packetSent:vector(packetBytes) ETV
attr interpolationmode none
attr recordingmode vector(packetBytes)
attr source packetSent
attr title "packets sent, packetBytes"
vector 139 ZrpTestNetworkBig.destination.udp packetReceived:vector(packetBytes) ETV
attr interpolationmode none
attr recordingmode vector(packetBytes)
attr source packetReceived
attr title "packets received, packetBytes"
vector 140 ZrpTestNetworkBig.destination.udp passedUpPk:vector(count) ETV
attr interpolationmode none
attr recordingmode vector(count)
attr source packetSentToUpper
attr title "packets passed up, count"
vector 141 ZrpTestNetworkBig.destination.udp droppedPkWrongPort:vector(count) ETV
attr interpolationmode none
attr recordingmode vector(count)
attr source packetDropReasonIsNoPortFound(packetDropped)
attr title "packets dropped (wrong port), count"
vector 142 ZrpTestNetworkBig.destination.udp droppedPkBadChecksum:vector(count) ETV
attr interpolationmode none
attr recordingmode vector(count)
attr source packetDropReasonIsIncorrectlyReceived(packetDropped)
attr title "packets dropped (checksum error), count"
vector 143 ZrpTestNetworkBig.node1.lo[0].lo rcvdPkFromHl:vector(packetBytes) ETV
attr interpolationmode none
attr recordingmode vector(packetBytes)
attr source packetReceivedFromUpper
attr title "packets received from higher layer, packetBytes"
vector 144 ZrpTestNetworkBig.node1.lo[0].lo passedUpPk:vector(packetBytes) ETV
attr interpolationmode none
attr recordingmode vector(packetBytes)
attr source packetSentToUpper
attr title "packets passed to higher layer, packetBytes"
vector 145 ZrpTestNetworkBig.node1.lo[0] packetDropInterfaceDown:vector(packetBytes) ETV
attr interpolationmode none
attr recordingmode vector(packetBytes)
attr source packetDropReasonIsInterfaceDown(packetDropped)
attr title "packet drops: interface down, packetBytes"
vector 146 ZrpTestNetworkBig.node1.lo[0] packetDropNoCarrier:vector(packetBytes) ETV
attr interpolationmode none
attr recordingmode vector(packetBytes)
attr source packetDropReasonIsNoCarrier(packetDropped)
attr title "packet drops: no carrier, packetBytes"
vector 147 ZrpTestNetworkBig.node1.wlan[0].mac.dcf.channelAccess.pendingQueue queueLength:vector ETV
attr autoWarmupFilter false
attr interpolationmode sample-hold
attr recordingmode vector
attr source "warmup(atomic(constant0(packetPushEnded) + count(packetPushStarted) - count(packetPulled) - count(packetRemoved) - count(packetDropped)))"
attr title "queue length"
attr unit pk
vector 148 ZrpTestNetworkBig.node1.wlan[0].mac.dcf.channelAccess.pendingQueue queueBitLength:vector ETV
attr autoWarmupFilter false
attr interpolationmode sample-hold
attr recordingmode vector
attr source "warmup(atomic(constant0(packetPushEnded) + sum(packetLength(packetPushStarted)) - sum(packetLength(packetPulled)) - sum(packetLength(packetRemoved)) - sum(packetLength(packetDropped))))"
attr title "queue bit length"
attr unit b
vector 149 ZrpTestNetworkBig.node1.wlan[0].mac.dcf.channelAccess.pendingQueue queueingTime:vector ETV
attr interpolationmode none
attr recordingmode vector
attr source queueingTime(packetPulled)
attr title "queueing times"
attr unit s
vector 150 ZrpTestNetworkBig.node1.wlan[0].mac.dcf.channelAccess.pendingQueue incomingPacketLengths:vector ETV
attr interpolationmode none
attr recordingmode vector
attr source packetLength(packetPushStarted)
attr title "incoming packet lengths"
attr unit b
vector 151 ZrpTestNetworkBig.node1.wlan[0].mac.dcf.channelAccess.pendingQueue incomingDataRate:vector ETV
attr interpolationmode linear
attr recordingmode vector
attr source throughput(packetPushStarted)
attr title "incoming datarate"
attr unit bps
vector 152 ZrpTestNetworkBig.node1.wlan[0].mac.dcf.channelAccess.pendingQueue outgoingPacketLengths:vector ETV
attr interpolationmode none
attr recordingmode vector
attr source packetLength(packetPulled)
attr title "outgoing packet lengths"
attr unit b
vector 153 ZrpTestNetworkBig.node1.wlan[0].mac.dcf.channelAccess.pendingQueue outgoingDataRate:vector ETV
attr interpolationmode linear
attr recordingmode vector
attr source throughput(packetPulled)
attr title "outgoing datarate"
attr unit bps
vector 154 ZrpTestNetworkBig.node1.wlan[0].mac.dcf.channelAccess.pendingQueue droppedPacketLengthsQueueOverflow:vector ETV
attr interpolationmode none
attr recordingmode vector
attr source packetLength(packetDropReasonIsQueueOverflow(packetDropped))
attr title "dropped packet lengths: queue overflow"
attr unit b
vector 155 ZrpTestNetworkBig.node1.wlan[0].mac.dcf.channelAccess.pendingQueue flowQueueingTime:vector ETV
attr interpolationmode none
attr recordingmode vector
attr source queueingTime(demuxFlow(packetPulled))
attr title "flow queueing times"
attr unit s
vector 156 ZrpTestNetworkBig.node1.wlan[0].mac.dcf.channelAccess.pendingQueue flowIncomingDataRate:vector ETV
attr interpolationmode linear
attr recordingmode vector
attr source throughput(flowPacketLength(demuxFlow(packetPushStarted)))
attr title "flow specific incoming data rate"
attr unit bps
vector 157 ZrpTestNetworkBig.node1.wlan[0].mac.dcf.channelAccess.pendingQueue flowOutgoingDataRate:vector ETV
attr interpolationmode linear
attr recordingmode vector
attr source throughput(flowPacketLength(demuxFlow(packetPulled)))
attr title "flow specific outgoing data rate"
attr unit bps
vector 158 ZrpTestNetworkBig.node1.wlan[0].mac.dcf.channelAccess.inProgressFrames queueingTime:vector ETV
attr interpolationmode none
attr recordingmode vector
attr source queueingTime(packetDequeued)
attr title "queueing times"
vector 159 ZrpTestNetworkBig.node1.wlan[0].mac.dcf.channelAccess.inProgressFrames queueLength:vector ETV
attr autoWarmupFilter false
attr interpolationmode sample-hold
attr recordingmode vector
attr source "warmup(count(packetEnqueued) - count(packetDequeued))"
attr title "queue length"
vector 160 ZrpTestNetworkBig.node1.wlan[0].mac.dcf.channelAccess.contention backoffPeriodGenerated:vector ETV
attr interpolationmode none
attr recordingmode vector
attr title "backoff periods"
vector 161 ZrpTestNetworkBig.node1.wlan[0].mac.dcf.channelAccess.contention backoffActive:vector ETV
attr autoWarmupFilter false
attr interpolationmode sample-hold
attr recordingmode vector
attr source warmup(count(backoffStarted)-count(backoffStopped))
attr title "backoff active"
vector 162 ZrpTestNetworkBig.node1.wlan[0].mac.dcf.channelAccess.contention stateChanged:vector ETV
attr enum IDLE,DEFER,IFS_AND_BACKOFF
attr interpolationmode none
attr recordingmode vector
attr title "contention state changed"
attr type enum
vector 163 ZrpTestNetworkBig.node1.wlan[0].mac.dcf.recipientMacDataService packetDropDuplicateDetected:vector(packetBytes) ETV
attr interpolationmode none
attr recordingmode vector(packetBytes)
attr source packetDropReasonIsDuplicateDetected(packetDropped)
attr title "packet drops: duplicate detected, packetBytes"
vector 164 ZrpTestNetworkBig.node1.wlan[0].mac.dcf.recoveryProcedure contentionWindowChanged:vector ETV
attr interpolationmode sample-hold
attr recordingmode vector
attr title "contention window"
vector 165 ZrpTestNetworkBig.node1.wlan[0].mac.dcf packetSentToPeer:vector(packetBytes) ETV
attr interpolationmode none
attr recordingmode vector(packetBytes)
attr title "packets sent, packetBytes"
vector 166 ZrpTestNetworkBig.node1.wlan[0].mac.dcf packetSentToPeerUnicast:vector(packetBytes) ETV
attr interpolationmode none
attr recordingmode vector(packetBytes)
attr source ieee80211Unicast(packetSentToPeer)
attr title "packets sent: unicast, packetBytes"
vector 167 ZrpTestNetworkBig.node1.wlan[0].mac.dcf packetSentToPeerMulticast:vector(packetBytes) ETV
attr interpolationmode none
attr recordingmode vector(packetBytes)
attr source ieee80211Multicast(packetSentToPeer)
attr title "packets sent: multicast, packetBytes"
vector 168 ZrpTestNetworkBig.node1.wlan[0].mac.dcf packetSentToPeerBroadcast:vector(packetBytes) ETV
attr interpolationmode none
attr recordingmode vector(packetBytes)
attr source ieee80211Broadcast(packetSentToPeer)
attr title "packets sent: broadcast , packetBytes"
vector 169 ZrpTestNetworkBig.node1.wlan[0].mac.dcf packetSentToPeerWithRetry:vector(packetBytes) ETV
attr interpolationmode none
attr recordingmode vector(packetBytes)
attr source ieee80211Retry(packetSentToPeer)
attr title "packets sent: with retry, packetBytes"
vector 170 ZrpTestNetworkBig.node1.wlan[0].mac.dcf packetSentToPeerWithoutRetry:vector(packetBytes) ETV
attr interpolationmode none
attr recordingmode vector(packetBytes)
attr source ieee80211NotRetry(packetSentToPeer)
attr title "packets sent: without retry, packetBytes"
vector 171 ZrpTestNetworkBig.node1.wlan[0].mac.dcf packetReceivedFromPeer:vector(packetBytes) ETV
attr interpolationmode none
attr recordingmode vector(packetBytes)
attr title "packets received, packetBytes"
vector 172 ZrpTestNetworkBig.node1.wlan[0].mac.dcf packetReceivedFromPeerUnicast:vector(packetBytes) ETV
attr interpolationmode none
attr recordingmode vector(packetBytes)
attr source ieee80211Unicast(packetReceivedFromPeer)
attr title "packets received: unicast, packetBytes"
vector 173 ZrpTestNetworkBig.node1.wlan[0].mac.dcf packetReceivedFromPeerMulticast:vector(packetBytes) ETV
attr interpolationmode none
attr recordingmode vector(packetBytes)
attr source ieee80211Multicast(packetReceivedFromPeer)
attr title "packets received: multicast, packetBytes"
vector 174 ZrpTestNetworkBig.node1.wlan[0].mac.dcf packetReceivedFromPeerBroadcast:vector(packetBytes) ETV
attr interpolationmode none
attr recordingmode vector(packetBytes)
attr source ieee80211Broadcast(packetReceivedFromPeer)
attr title "packets received: broadcast, packetBytes"
vector 175 ZrpTestNetworkBig.node1.wlan[0].mac.dcf packetReceivedFromPeerWithRetry:vector(packetBytes) ETV
attr interpolationmode none
attr recordingmode vector(packetBytes)
attr source ieee80211Retry(packetReceivedFromPeer)
attr title "packets received: with retry, packetBytes"
vector 176 ZrpTestNetworkBig.node1.wlan[0].mac.dcf packetReceivedFromPeerWithoutRetry:vector(packetBytes) ETV
attr interpolationmode none
attr recordingmode vector(packetBytes)
attr source ieee80211NotRetry(packetReceivedFromPeer)
attr title "packets received: without retry, packetBytes"
vector 177 ZrpTestNetworkBig.node1.wlan[0].mac.dcf packetDrop:vector(packetBytes) ETV
attr interpolationmode none
attr recordingmode vector(packetBytes)
attr source packetDropped
attr title "packet drops, packetBytes"
vector 178 ZrpTestNetworkBig.node1.wlan[0].mac.dcf packetDropNotAddressedToUs:vector(packetBytes) ETV
attr interpolationmode none
attr recordingmode vector(packetBytes)
attr source packetDropReasonIsNotAddressedToUs(packetDropped)
attr title "packet drops: not addressed to us, packetBytes"
vector 179 ZrpTestNetworkBig.node1.wlan[0].mac.dcf packetDropQueueOverflow:vector(packetBytes) ETV
attr interpolationmode none
attr recordingmode vector(packetBytes)
attr source packetDropReasonIsQueueOverflow(packetDropped)
attr title "packet drops: queue overflow, packetBytes"
vector 180 ZrpTestNetworkBig.node1.wlan[0].mac.dcf packetDropRetryLimitReached:vector(packetBytes) ETV
attr interpolationmode none
attr recordingmode vector(packetBytes)
attr source packetDropReasonIsRetryLimitReached(packetDropped)
attr title "packet drops: retry limit reached, packetBytes"
vector 181 ZrpTestNetworkBig.node1.wlan[0].mac.dcf frameSequenceActive:vector ETV
attr autoWarmupFilter false
attr interpolationmode sample-hold
attr recordingmode vector
attr source warmup(count(frameSequenceStarted)-count(frameSequenceFinished))
attr title "frame sequence active"
vector 182 ZrpTestNetworkBig.node1.wlan[0].mac.dcf datarateSelected:vector ETV
attr interpolationmode none
attr recordingmode vector
attr title "datarates selected"
vector 183 ZrpTestNetworkBig.node1.wlan[0].mac.rx nav:vector ETV
attr interpolationmode linear
attr recordingmode vector
attr source navChanged
attr title "network allocation vector"
vector 184 ZrpTestNetworkBig.node1.wlan[0].mac packetSentToUpper:vector(packetBytes) ETV
attr interpolationmode none
attr recordingmode vector(packetBytes)
attr title "packets sent to upper layer, packetBytes"
vector 185 ZrpTestNetworkBig.node1.wlan[0].mac packetSentToLower:vector(packetBytes) ETV
attr interpolationmode none
attr recordingmode vector(packetBytes)
attr title "packets sent to lower layer, packetBytes"
vector 186 ZrpTestNetworkBig.node1.wlan[0].mac packetReceivedFromUpper:vector(packetBytes) ETV
attr interpolationmode none
attr recordingmode vector(packetBytes)
attr title "packets received from upper layer, packetBytes"
vector 187 ZrpTestNetworkBig.node1.wlan[0].mac packetReceivedFromLower:vector(packetBytes) ETV
attr interpolationmode none
attr recordingmode vector(packetBytes)
attr title "packets received from lower layer, packetBytes"
vector 188 ZrpTestNetworkBig.node1.wlan[0].mac packetDrop:vector(packetBytes) ETV
attr interpolationmode none
attr recordingmode vector(packetBytes)
attr source packetDropped
attr title "packet drops, packetBytes"
vector 189 ZrpTestNetworkBig.node1.wlan[0].mac packetDropIncorrectlyReceived:vector(packetBytes) ETV
attr interpolationmode none
attr recordingmode vector(packetBytes)
attr source packetDropReasonIsIncorrectlyReceived(packetDropped)
attr title "packet drops: incorrectly received, packetBytes"
vector 190 ZrpTestNetworkBig.node1.wlan[0].mac packetDropNotAddressedToUs:vector(packetBytes) ETV
attr interpolationmode none
attr recordingmode vector(packetBytes)
attr source packetDropReasonIsNotAddressedToUs(packetDropped)
attr title "packet drops: not addressed to us, packetBytes"
vector 191 ZrpTestNetworkBig.node1.wlan[0].mac packetDropQueueOverflow:vector(packetBytes) ETV
attr interpolationmode none
attr recordingmode vector(packetBytes)
attr source packetDropReasonIsQueueOverflow(packetDropped)
attr title "packet drops: queue overflow, packetBytes"
vector 192 ZrpTestNetworkBig.node1.wlan[0].mac packetDropRetryLimitReached:vector(packetBytes) ETV
attr interpolationmode none
attr recordingmode vector(packetBytes)
attr source packetDropReasonIsRetryLimitReached(packetDropped)
attr title "packet drops: retry limit reached, packetBytes"
vector 193 ZrpTestNetworkBig.node1.wlan[0].mac packetDropDuplicateDetected:vector(packetBytes) ETV
attr interpolationmode none
attr recordingmode vector(packetBytes)
attr source packetDropReasonIsDuplicateDetected(packetDropped)
attr title "packet drops: duplicate detected, packetBytes"
vector 194 ZrpTestNetworkBig.node1.wlan[0].mac packetDropOther:vector(packetBytes) ETV
attr interpolationmode none
attr recordingmode vector(packetBytes)
attr source packetDropReasonIsOther(packetDropped)
attr title "packet drops: other, packetBytes"
vector 195 ZrpTestNetworkBig.node1.wlan[0].radio radioMode:vector ETV
attr interpolationmode sample-hold
attr recordingmode vector
attr source radioModeChanged
attr title "Radio mode"
vector 196 ZrpTestNetworkBig.node1.wlan[0].radio receptionState:vector ETV
attr interpolationmode sample-hold
attr recordingmode vector
attr source receptionStateChanged
attr title "Radio reception state"
vector 197 ZrpTestNetworkBig.node1.wlan[0].radio transmissionState:vector ETV
attr interpolationmode sample-hold
attr recordingmode vector
attr source transmissionStateChanged
attr title "Radio transmission state"
vector 198 ZrpTestNetworkBig.node1.wlan[0].radio radioChannel:vector ETV
attr interpolationmode sample-hold
attr recordingmode vector
attr source radioChannelChanged
attr title "Radio channel"
vector 199 ZrpTestNetworkBig.node1.wlan[0] packetDropInterfaceDown:vector(packetBytes) ETV
attr interpolationmode none
attr recordingmode vector(packetBytes)
attr source packetDropReasonIsInterfaceDown(packetDropped)
attr title "packet drops: interface down, packetBytes"
vector 200 ZrpTestNetworkBig.node1.wlan[0] packetDropNoCarrier:vector(packetBytes) ETV
attr interpolationmode none
attr recordingmode vector(packetBytes)
attr source packetDropReasonIsNoCarrier(packetDropped)
attr title "packet drops: no carrier, packetBytes"
vector 201 ZrpTestNetworkBig.node1.ipv4.ip packetDropAddressResolutionFailed:vector(packetBytes) ETV
attr interpolationmode none
attr recordingmode vector(packetBytes)
attr source packetDropReasonIsAddressResolutionFailed(packetDropped)
attr title "packet drop: address resolution failed, packetBytes"
vector 202 ZrpTestNetworkBig.node1.ipv4.ip packetDropHopLimitReached:vector(packetBytes) ETV
attr interpolationmode none
attr recordingmode vector(packetBytes)
attr source packetDropReasonIsHopLimitReached(packetDropped)
attr title "packet drop: hop limit reached, packetBytes"
vector 203 ZrpTestNetworkBig.node1.ipv4.ip packetDropForwardingDisabled:vector(packetBytes) ETV
attr interpolationmode none
attr recordingmode vector(packetBytes)
attr source packetDropReasonIsForwardingDisabled(packetDropped)
attr title "packet drop: forwarding disabled, packetBytes"
vector 204 ZrpTestNetworkBig.node1.ipv4.ip packetDropNoInterfaceFound:vector(packetBytes) ETV
attr interpolationmode none
attr recordingmode vector(packetBytes)
attr source packetDropReasonIsNoInterfaceFound(packetDropped)
attr title "packet drop: no interface found, packetBytes"
vector 205 ZrpTestNetworkBig.node1.ipv4.ip packetDropNoRouteFound:vector(packetBytes) ETV
attr interpolationmode none
attr recordingmode vector(packetBytes)
attr source packetDropReasonIsNoRouteFound(packetDropped)
attr title "packet drop: no route found, packetBytes"
vector 206 ZrpTestNetworkBig.node1.ipv4.ip packetDropUndefined:vector(packetBytes) ETV
attr interpolationmode none
attr recordingmode vector(packetBytes)
attr source packetDropReasonIsUndefined(packetDropped)
attr title "packet drop: undefined, packetBytes"
vector 207 ZrpTestNetworkBig.node1.udp packetSent:vector(packetBytes) ETV
attr interpolationmode none
attr recordingmode vector(packetBytes)
attr source packetSent
attr title "packets sent, packetBytes"
vector 208 ZrpTestNetworkBig.node1.udp packetReceived:vector(packetBytes) ETV
attr interpolationmode none
attr recordingmode vector(packetBytes)
attr source packetReceived
attr title "packets received, packetBytes"
vector 209 ZrpTestNetworkBig.node1.udp passedUpPk:vector(count) ETV
attr interpolationmode none
attr recordingmode vector(count)
attr source packetSentToUpper
attr title "packets passed up, count"
vector 210 ZrpTestNetworkBig.node1.udp droppedPkWrongPort:vector(count) ETV
attr interpolationmode none
attr recordingmode vector(count)
attr source packetDropReasonIsNoPortFound(packetDropped)
attr title "packets dropped (wrong port), count"
vector 211 ZrpTestNetworkBig.node1.udp droppedPkBadChecksum:vector(count) ETV
attr interpolationmode none
attr recordingmode vector(count)
attr source packetDropReasonIsIncorrectlyReceived(packetDropped)
attr title "packets dropped (checksum error), count"
vector 212 ZrpTestNetworkBig.node2.lo[0].lo rcvdPkFromHl:vector(packetBytes) ETV
attr interpolationmode none
attr recordingmode vector(packetBytes)
attr source packetReceivedFromUpper
attr title "packets received from higher layer, packetBytes"
vector 213 ZrpTestNetworkBig.node2.lo[0].lo passedUpPk:vector(packetBytes) ETV
attr interpolationmode none
attr recordingmode vector(packetBytes)
attr source packetSentToUpper
attr title "packets passed to higher layer, packetBytes"
vector 214 ZrpTestNetworkBig.node2.lo[0] packetDropInterfaceDown:vector(packetBytes) ETV
attr interpolationmode none
attr recordingmode vector(packetBytes)
attr source packetDropReasonIsInterfaceDown(packetDropped)
attr title "packet drops: interface down, packetBytes"
vector 215 ZrpTestNetworkBig.node2.lo[0] packetDropNoCarrier:vector(packetBytes) ETV
attr interpolationmode none
attr recordingmode vector(packetBytes)
attr source packetDropReasonIsNoCarrier(packetDropped)
attr title "packet drops: no carrier, packetBytes"
vector 216 ZrpTestNetworkBig.node2.wlan[0].mac.dcf.channelAccess.pendingQueue queueLength:vector ETV
attr autoWarmupFilter false
attr interpolationmode sample-hold
attr recordingmode vector
attr source "warmup(atomic(constant0(packetPushEnded) + count(packetPushStarted) - count(packetPulled) - count(packetRemoved) - count(packetDropped)))"
attr title "queue length"
attr unit pk
vector 217 ZrpTestNetworkBig.node2.wlan[0].mac.dcf.channelAccess.pendingQueue queueBitLength:vector ETV
attr autoWarmupFilter false
attr interpolationmode sample-hold
attr recordingmode vector
attr source "warmup(atomic(constant0(packetPushEnded) + sum(packetLength(packetPushStarted)) - sum(packetLength(packetPulled)) - sum(packetLength(packetRemoved)) - sum(packetLength(packetDropped))))"
attr title "queue bit length"
attr unit b
vector 218 ZrpTestNetworkBig.node2.wlan[0].mac.dcf.channelAccess.pendingQueue queueingTime:vector ETV
attr interpolationmode none
attr recordingmode vector
attr source queueingTime(packetPulled)
attr title "queueing times"
attr unit s
vector 219 ZrpTestNetworkBig.node2.wlan[0].mac.dcf.channelAccess.pendingQueue incomingPacketLengths:vector ETV
attr interpolationmode none
attr recordingmode vector
attr source packetLength(packetPushStarted)
attr title "incoming packet lengths"
attr unit b
vector 220 ZrpTestNetworkBig.node2.wlan[0].mac.dcf.channelAccess.pendingQueue incomingDataRate:vector ETV
attr interpolationmode linear
attr recordingmode vector
attr source throughput(packetPushStarted)
attr title "incoming datarate"
attr unit bps
vector 221 ZrpTestNetworkBig.node2.wlan[0].mac.dcf.channelAccess.pendingQueue outgoingPacketLengths:vector ETV
attr interpolationmode none
attr recordingmode vector
attr source packetLength(packetPulled)
attr title "outgoing packet lengths"
attr unit b
vector 222 ZrpTestNetworkBig.node2.wlan[0].mac.dcf.channelAccess.pendingQueue outgoingDataRate:vector ETV
attr interpolationmode linear
attr recordingmode vector
attr source throughput(packetPulled)
attr title "outgoing datarate"
attr unit bps
vector 223 ZrpTestNetworkBig.node2.wlan[0].mac.dcf.channelAccess.pendingQueue droppedPacketLengthsQueueOverflow:vector ETV
attr interpolationmode none
attr recordingmode vector
attr source packetLength(packetDropReasonIsQueueOverflow(packetDropped))
attr title "dropped packet lengths: queue overflow"
attr unit b
vector 224 ZrpTestNetworkBig.node2.wlan[0].mac.dcf.channelAccess.pendingQueue flowQueueingTime:vector ETV
attr interpolationmode none
attr recordingmode vector
attr source queueingTime(demuxFlow(packetPulled))
attr title "flow queueing times"
attr unit s
vector 225 ZrpTestNetworkBig.node2.wlan[0].mac.dcf.channelAccess.pendingQueue flowIncomingDataRate:vector ETV
attr interpolationmode linear
attr recordingmode vector
attr source throughput(flowPacketLength(demuxFlow(packetPushStarted)))
attr title "flow specific incoming data rate"
attr unit bps
vector 226 ZrpTestNetworkBig.node2.wlan[0].mac.dcf.channelAccess.pendingQueue flowOutgoingDataRate:vector ETV
attr interpolationmode linear
attr recordingmode vector
attr source throughput(flowPacketLength(demuxFlow(packetPulled)))
attr title "flow specific outgoing data rate"
attr unit bps
vector 227 ZrpTestNetworkBig.node2.wlan[0].mac.dcf.channelAccess.inProgressFrames queueingTime:vector ETV
attr interpolationmode none
attr recordingmode vector
attr source queueingTime(packetDequeued)
attr title "queueing times"
vector 228 ZrpTestNetworkBig.node2.wlan[0].mac.dcf.channelAccess.inProgressFrames queueLength:vector ETV
attr autoWarmupFilter false
attr interpolationmode sample-hold
attr recordingmode vector
attr source "warmup(count(packetEnqueued) - count(packetDequeued))"
attr title "queue length"
vector 229 ZrpTestNetworkBig.node2.wlan[0].mac.dcf.channelAccess.contention backoffPeriodGenerated:vector ETV
attr interpolationmode none
attr recordingmode vector
attr title "backoff periods"
vector 230 ZrpTestNetworkBig.node2.wlan[0].mac.dcf.channelAccess.contention backoffActive:vector ETV
attr autoWarmupFilter false
attr interpolationmode sample-hold
attr recordingmode vector
attr source warmup(count(backoffStarted)-count(backoffStopped))
attr title "backoff active"
vector 231 ZrpTestNetworkBig.node2.wlan[0].mac.dcf.channelAccess.contention stateChanged:vector ETV
attr enum IDLE,DEFER,IFS_AND_BACKOFF
attr interpolationmode none
attr recordingmode vector
attr title "contention state changed"
attr type enum
vector 232 ZrpTestNetworkBig.node2.wlan[0].mac.dcf.recipientMacDataService packetDropDuplicateDetected:vector(packetBytes) ETV
attr interpolationmode none
attr recordingmode vector(packetBytes)
attr source packetDropReasonIsDuplicateDetected(packetDropped)
attr title "packet drops: duplicate detected, packetBytes"
vector 233 ZrpTestNetworkBig.node2.wlan[0].mac.dcf.recoveryProcedure contentionWindowChanged:vector ETV
attr interpolationmode sample-hold
attr recordingmode vector
attr title "contention window"
vector 234 ZrpTestNetworkBig.node2.wlan[0].mac.dcf packetSentToPeer:vector(packetBytes) ETV
attr interpolationmode none
attr recordingmode vector(packetBytes)
attr title "packets sent, packetBytes"
vector 235 ZrpTestNetworkBig.node2.wlan[0].mac.dcf packetSentToPeerUnicast:vector(packetBytes) ETV
attr interpolationmode none
attr recordingmode vector(packetBytes)
attr source ieee80211Unicast(packetSentToPeer)
attr title "packets sent: unicast, packetBytes"
vector 236 ZrpTestNetworkBig.node2.wlan[0].mac.dcf packetSentToPeerMulticast:vector(packetBytes) ETV
attr interpolationmode none
attr recordingmode vector(packetBytes)
attr source ieee80211Multicast(packetSentToPeer)
attr title "packets sent: multicast, packetBytes"
vector 237 ZrpTestNetworkBig.node2.wlan[0].mac.dcf packetSentToPeerBroadcast:vector(packetBytes) ETV
attr interpolationmode none
attr recordingmode vector(packetBytes)
attr source ieee80211Broadcast(packetSentToPeer)
attr title "packets sent: broadcast , packetBytes"
vector 238 ZrpTestNetworkBig.node2.wlan[0].mac.dcf packetSentToPeerWithRetry:vector(packetBytes) ETV
attr interpolationmode none
attr recordingmode vector(packetBytes)
attr source ieee80211Retry(packetSentToPeer)
attr title "packets sent: with retry, packetBytes"
vector 239 ZrpTestNetworkBig.node2.wlan[0].mac.dcf packetSentToPeerWithoutRetry:vector(packetBytes) ETV
attr interpolationmode none
attr recordingmode vector(packetBytes)
attr source ieee80211NotRetry(packetSentToPeer)
attr title "packets sent: without retry, packetBytes"
vector 240 ZrpTestNetworkBig.node2.wlan[0].mac.dcf packetReceivedFromPeer:vector(packetBytes) ETV
attr interpolationmode none
attr recordingmode vector(packetBytes)
attr title "packets received, packetBytes"
vector 241 ZrpTestNetworkBig.node2.wlan[0].mac.dcf packetReceivedFromPeerUnicast:vector(packetBytes) ETV
attr interpolationmode none
attr recordingmode vector(packetBytes)
attr source ieee80211Unicast(packetReceivedFromPeer)
attr title "packets received: unicast, packetBytes"
vector 242 ZrpTestNetworkBig.node2.wlan[0].mac.dcf packetReceivedFromPeerMulticast:vector(packetBytes) ETV
attr interpolationmode none
attr recordingmode vector(packetBytes)
attr source ieee80211Multicast(packetReceivedFromPeer)
attr title "packets received: multicast, packetBytes"
vector 243 ZrpTestNetworkBig.node2.wlan[0].mac.dcf packetReceivedFromPeerBroadcast:vector(packetBytes) ETV
attr interpolationmode none
attr recordingmode vector(packetBytes)
attr source ieee80211Broadcast(packetReceivedFromPeer)
attr title "packets received: broadcast, packetBytes"
vector 244 ZrpTestNetworkBig.node2.wlan[0].mac.dcf packetReceivedFromPeerWithRetry:vector(packetBytes) ETV
attr interpolationmode none
attr recordingmode vector(packetBytes)
attr source ieee80211Retry(packetReceivedFromPeer)
attr title "packets received: with retry, packetBytes"
vector 245 ZrpTestNetworkBig.node2.wlan[0].mac.dcf packetReceivedFromPeerWithoutRetry:vector(packetBytes) ETV
attr interpolationmode none
attr recordingmode vector(packetBytes)
attr source ieee80211NotRetry(packetReceivedFromPeer)
attr title "packets received: without retry, packetBytes"
vector 246 ZrpTestNetworkBig.node2.wlan[0].mac.dcf packetDrop:vector(packetBytes) ETV
attr interpolationmode none
attr recordingmode vector(packetBytes)
attr source packetDropped
attr title "packet drops, packetBytes"
vector 247 ZrpTestNetworkBig.node2.wlan[0].mac.dcf packetDropNotAddressedToUs:vector(packetBytes) ETV
attr interpolationmode none
attr recordingmode vector(packetBytes)
attr source packetDropReasonIsNotAddressedToUs(packetDropped)
attr title "packet drops: not addressed to us, packetBytes"
vector 248 ZrpTestNetworkBig.node2.wlan[0].mac.dcf packetDropQueueOverflow:vector(packetBytes) ETV
attr interpolationmode none
attr recordingmode vector(packetBytes)
attr source packetDropReasonIsQueueOverflow(packetDropped)
attr title "packet drops: queue overflow, packetBytes"
vector 249 ZrpTestNetworkBig.node2.wlan[0].mac.dcf packetDropRetryLimitReached:vector(packetBytes) ETV
attr interpolationmode none
attr recordingmode vector(packetBytes)
attr source packetDropReasonIsRetryLimitReached(packetDropped)
attr title "packet drops: retry limit reached, packetBytes"
vector 250 ZrpTestNetworkBig.node2.wlan[0].mac.dcf frameSequenceActive:vector ETV
attr autoWarmupFilter false
attr interpolationmode sample-hold
attr recordingmode vector
attr source warmup(count(frameSequenceStarted)-count(frameSequenceFinished))
attr title "frame sequence active"
vector 251 ZrpTestNetworkBig.node2.wlan[0].mac.dcf datarateSelected:vector ETV
attr interpolationmode none
attr recordingmode vector
attr title "datarates selected"
vector 252 ZrpTestNetworkBig.node2.wlan[0].mac.rx nav:vector ETV
attr interpolationmode linear
attr recordingmode vector
attr source navChanged
attr title "network allocation vector"
vector 253 ZrpTestNetworkBig.node2.wlan[0].mac packetSentToUpper:vector(packetBytes) ETV
attr interpolationmode none
attr recordingmode vector(packetBytes)
attr title "packets sent to upper layer, packetBytes"
vector 254 ZrpTestNetworkBig.node2.wlan[0].mac packetSentToLower:vector(packetBytes) ETV
attr interpolationmode none
attr recordingmode vector(packetBytes)
attr title "packets sent to lower layer, packetBytes"
vector 255 ZrpTestNetworkBig.node2.wlan[0].mac packetReceivedFromUpper:vector(packetBytes) ETV
attr interpolationmode none
attr recordingmode vector(packetBytes)
attr title "packets received from upper layer, packetBytes"
vector 256 ZrpTestNetworkBig.node2.wlan[0].mac packetReceivedFromLower:vector(packetBytes) ETV
attr interpolationmode none
attr recordingmode vector(packetBytes)
attr title "packets received from lower layer, packetBytes"
vector 257 ZrpTestNetworkBig.node2.wlan[0].mac packetDrop:vector(packetBytes) ETV
attr interpolationmode none
attr recordingmode vector(packetBytes)
attr source packetDropped
attr title "packet drops, packetBytes"
vector 258 ZrpTestNetworkBig.node2.wlan[0].mac packetDropIncorrectlyReceived:vector(packetBytes) ETV
attr interpolationmode none
attr recordingmode vector(packetBytes)
attr source packetDropReasonIsIncorrectlyReceived(packetDropped)
attr title "packet drops: incorrectly received, packetBytes"
vector 259 ZrpTestNetworkBig.node2.wlan[0].mac packetDropNotAddressedToUs:vector(packetBytes) ETV
attr interpolationmode none
attr recordingmode vector(packetBytes)
attr source packetDropReasonIsNotAddressedToUs(packetDropped)
attr title "packet drops: not addressed to us, packetBytes"
vector 260 ZrpTestNetworkBig.node2.wlan[0].mac packetDropQueueOverflow:vector(packetBytes) ETV
attr interpolationmode none
attr recordingmode vector(packetBytes)
attr source packetDropReasonIsQueueOverflow(packetDropped)
attr title "packet drops: queue overflow, packetBytes"
vector 261 ZrpTestNetworkBig.node2.wlan[0].mac packetDropRetryLimitReached:vector(packetBytes) ETV
attr interpolationmode none
attr recordingmode vector(packetBytes)
attr source packetDropReasonIsRetryLimitReached(packetDropped)
attr title "packet drops: retry limit reached, packetBytes"
vector 262 ZrpTestNetworkBig.node2.wlan[0].mac packetDropDuplicateDetected:vector(packetBytes) ETV
attr interpolationmode none
attr recordingmode vector(packetBytes)
attr source packetDropReasonIsDuplicateDetected(packetDropped)
attr title "packet drops: duplicate detected, packetBytes"
vector 263 ZrpTestNetworkBig.node2.wlan[0].mac packetDropOther:vector(packetBytes) ETV
attr interpolationmode none
attr recordingmode vector(packetBytes)
attr source packetDropReasonIsOther(packetDropped)
attr title "packet drops: other, packetBytes"
vector 264 ZrpTestNetworkBig.node2.wlan[0].radio radioMode:vector ETV
attr interpolationmode sample-hold
attr recordingmode vector
attr source radioModeChanged
attr title "Radio mode"
vector 265 ZrpTestNetworkBig.node2.wlan[0].radio receptionState:vector ETV
attr interpolationmode sample-hold
attr recordingmode vector
attr source receptionStateChanged
attr title "Radio reception state"
vector 266 ZrpTestNetworkBig.node2.wlan[0].radio transmissionState:vector ETV
attr interpolationmode sample-hold
attr recordingmode vector
attr source transmissionStateChanged
attr title "Radio transmission state"
vector 267 ZrpTestNetworkBig.node2.wlan[0].radio radioChannel:vector ETV
attr interpolationmode sample-hold
attr recordingmode vector
attr source radioChannelChanged
attr title "Radio channel"
vector 268 ZrpTestNetworkBig.node2.wlan[0] packetDropInterfaceDown:vector(packetBytes) ETV
attr interpolationmode none
attr recordingmode vector(packetBytes)
attr source packetDropReasonIsInterfaceDown(packetDropped)
attr title "packet drops: interface down, packetBytes"
vector 269 ZrpTestNetworkBig.node2.wlan[0] packetDropNoCarrier:vector(packetBytes) ETV
attr interpolationmode none
attr recordingmode vector(packetBytes)
attr source packetDropReasonIsNoCarrier(packetDropped)
attr title "packet drops: no carrier, packetBytes"
vector 270 ZrpTestNetworkBig.node2.ipv4.ip packetDropAddressResolutionFailed:vector(packetBytes) ETV
attr interpolationmode none
attr recordingmode vector(packetBytes)
attr source packetDropReasonIsAddressResolutionFailed(packetDropped)
attr title "packet drop: address resolution failed, packetBytes"
vector 271 ZrpTestNetworkBig.node2.ipv4.ip packetDropHopLimitReached:vector(packetBytes) ETV
attr interpolationmode none
attr recordingmode vector(packetBytes)
attr source packetDropReasonIsHopLimitReached(packetDropped)
attr title "packet drop: hop limit reached, packetBytes"
vector 272 ZrpTestNetworkBig.node2.ipv4.ip packetDropForwardingDisabled:vector(packetBytes) ETV
attr interpolationmode none
attr recordingmode vector(packetBytes)
attr source packetDropReasonIsForwardingDisabled(packetDropped)
attr title "packet drop: forwarding disabled, packetBytes"
vector 273 ZrpTestNetworkBig.node2.ipv4.ip packetDropNoInterfaceFound:vector(packetBytes) ETV
attr interpolationmode none
attr recordingmode vector(packetBytes)
attr source packetDropReasonIsNoInterfaceFound(packetDropped)
attr title "packet drop: no interface found, packetBytes"
vector 274 ZrpTestNetworkBig.node2.ipv4.ip packetDropNoRouteFound:vector(packetBytes) ETV
attr interpolationmode none
attr recordingmode vector(packetBytes)
attr source packetDropReasonIsNoRouteFound(packetDropped)
attr title "packet drop: no route found, packetBytes"
vector 275 ZrpTestNetworkBig.node2.ipv4.ip packetDropUndefined:vector(packetBytes) ETV
attr interpolationmode none
attr recordingmode vector(packetBytes)
attr source packetDropReasonIsUndefined(packetDropped)
attr title "packet drop: undefined, packetBytes"
vector 276 ZrpTestNetworkBig.node2.udp packetSent:vector(packetBytes) ETV
attr interpolationmode none
attr recordingmode vector(packetBytes)
attr source packetSent
attr title "packets sent, packetBytes"
vector 277 ZrpTestNetworkBig.node2.udp packetReceived:vector(packetBytes) ETV
attr interpolationmode none
attr recordingmode vector(packetBytes)
attr source packetReceived
attr title "packets received, packetBytes"
vector 278 ZrpTestNetworkBig.node2.udp passedUpPk:vector(count) ETV
attr interpolationmode none
attr recordingmode vector(count)
attr source packetSentToUpper
attr title "packets passed up, count"
vector 279 ZrpTestNetworkBig.node2.udp droppedPkWrongPort:vector(count) ETV
attr interpolationmode none
attr recordingmode vector(count)
attr source packetDropReasonIsNoPortFound(packetDropped)
attr title "packets dropped (wrong port), count"
vector 280 ZrpTestNetworkBig.node2.udp droppedPkBadChecksum:vector(count) ETV
attr interpolationmode none
attr recordingmode vector(count)
attr source packetDropReasonIsIncorrectlyReceived(packetDropped)
attr title "packets dropped (checksum error), count"
vector 281 ZrpTestNetworkBig.node3.lo[0].lo rcvdPkFromHl:vector(packetBytes) ETV
attr interpolationmode none
attr recordingmode vector(packetBytes)
attr source packetReceivedFromUpper
attr title "packets received from higher layer, packetBytes"
vector 282 ZrpTestNetworkBig.node3.lo[0].lo passedUpPk:vector(packetBytes) ETV
attr interpolationmode none
attr recordingmode vector(packetBytes)
attr source packetSentToUpper
attr title "packets passed to higher layer, packetBytes"
vector 283 ZrpTestNetworkBig.node3.lo[0] packetDropInterfaceDown:vector(packetBytes) ETV
attr interpolationmode none
attr recordingmode vector(packetBytes)
attr source packetDropReasonIsInterfaceDown(packetDropped)
attr title "packet drops: interface down, packetBytes"
vector 284 ZrpTestNetworkBig.node3.lo[0] packetDropNoCarrier:vector(packetBytes) ETV
attr interpolationmode none
attr recordingmode vector(packetBytes)
attr source packetDropReasonIsNoCarrier(packetDropped)
attr title "packet drops: no carrier, packetBytes"
vector 285 ZrpTestNetworkBig.node3.wlan[0].mac.dcf.channelAccess.pendingQueue queueLength:vector ETV
attr autoWarmupFilter false
attr interpolationmode sample-hold
attr recordingmode vector
attr source "warmup(atomic(constant0(packetPushEnded) + count(packetPushStarted) - count(packetPulled) - count(packetRemoved) - count(packetDropped)))"
attr title "queue length"
attr unit pk
vector 286 ZrpTestNetworkBig.node3.wlan[0].mac.dcf.channelAccess.pendingQueue queueBitLength:vector ETV
attr autoWarmupFilter false
attr interpolationmode sample-hold
attr recordingmode vector
attr source "warmup(atomic(constant0(packetPushEnded) + sum(packetLength(packetPushStarted)) - sum(packetLength(packetPulled)) - sum(packetLength(packetRemoved)) - sum(packetLength(packetDropped))))"
attr title "queue bit length"
attr unit b
vector 287 ZrpTestNetworkBig.node3.wlan[0].mac.dcf.channelAccess.pendingQueue queueingTime:vector ETV
attr interpolationmode none
attr recordingmode vector
attr source queueingTime(packetPulled)
attr title "queueing times"
attr unit s
vector 288 ZrpTestNetworkBig.node3.wlan[0].mac.dcf.channelAccess.pendingQueue incomingPacketLengths:vector ETV
attr interpolationmode none
attr recordingmode vector
attr source packetLength(packetPushStarted)
attr title "incoming packet lengths"
attr unit b
vector 289 ZrpTestNetworkBig.node3.wlan[0].mac.dcf.channelAccess.pendingQueue incomingDataRate:vector ETV
attr interpolationmode linear
attr recordingmode vector
attr source throughput(packetPushStarted)
attr title "incoming datarate"
attr unit bps
vector 290 ZrpTestNetworkBig.node3.wlan[0].mac.dcf.channelAccess.pendingQueue outgoingPacketLengths:vector ETV
attr interpolationmode none
attr recordingmode vector
attr source packetLength(packetPulled)
attr title "outgoing packet lengths"
attr unit b
vector 291 ZrpTestNetworkBig.node3.wlan[0].mac.dcf.channelAccess.pendingQueue outgoingDataRate:vector ETV
attr interpolationmode linear
attr recordingmode vector
attr source throughput(packetPulled)
attr title "outgoing datarate"
attr unit bps
vector 292 ZrpTestNetworkBig.node3.wlan[0].mac.dcf.channelAccess.pendingQueue droppedPacketLengthsQueueOverflow:vector ETV
attr interpolationmode none
attr recordingmode vector
attr source packetLength(packetDropReasonIsQueueOverflow(packetDropped))
attr title "dropped packet lengths: queue overflow"
attr unit b
vector 293 ZrpTestNetworkBig.node3.wlan[0].mac.dcf.channelAccess.pendingQueue flowQueueingTime:vector ETV
attr interpolationmode none
attr recordingmode vector
attr source queueingTime(demuxFlow(packetPulled))
attr title "flow queueing times"
attr unit s
vector 294 ZrpTestNetworkBig.node3.wlan[0].mac.dcf.channelAccess.pendingQueue flowIncomingDataRate:vector ETV
attr interpolationmode linear
attr recordingmode vector
attr source throughput(flowPacketLength(demuxFlow(packetPushStarted)))
attr title "flow specific incoming data rate"
attr unit bps
vector 295 ZrpTestNetworkBig.node3.wlan[0].mac.dcf.channelAccess.pendingQueue flowOutgoingDataRate:vector ETV
attr interpolationmode linear
attr recordingmode vector
attr source throughput(flowPacketLength(demuxFlow(packetPulled)))
attr title "flow specific outgoing data rate"
attr unit bps
vector 296 ZrpTestNetworkBig.node3.wlan[0].mac.dcf.channelAccess.inProgressFrames queueingTime:vector ETV
attr interpolationmode none
attr recordingmode vector
attr source queueingTime(packetDequeued)
attr title "queueing times"
vector 297 ZrpTestNetworkBig.node3.wlan[0].mac.dcf.channelAccess.inProgressFrames queueLength:vector ETV
attr autoWarmupFilter false
attr interpolationmode sample-hold
attr recordingmode vector
attr source "warmup(count(packetEnqueued) - count(packetDequeued))"
attr title "queue length"
vector 298 ZrpTestNetworkBig.node3.wlan[0].mac.dcf.channelAccess.contention backoffPeriodGenerated:vector ETV
attr interpolationmode none
attr recordingmode vector
attr title "backoff periods"
vector 299 ZrpTestNetworkBig.node3.wlan[0].mac.dcf.channelAccess.contention backoffActive:vector ETV
attr autoWarmupFilter false
attr interpolationmode sample-hold
attr recordingmode vector
[...]
946	14120	10.066897430798	14
946	14161	10.067305430798	88
946	14265	10.067683531012	132
946	14357	10.075385716495	14
946	14418	10.077477761534	70
946	14480	10.078107307835	70
946	14549	10.079786374981	96
946	14588	10.07983070389	14
946	14677	10.080323141017	96
946	14769	10.080900213123	96
946	15383	10.126231261523	92
946	15515	10.126708042063	14
946	15555	10.127336042063	92
946	15676	10.136339625168	14
946	15788	10.137913024211	14
946	15827	10.138081024211	92
946	16015	10.157749805708	84
946	16060	10.157794242835	14
946	16153	10.161158109155	14
946	16246	10.164469043786	96
946	16376	10.164809773522	14
946	16412	10.165061773522	96
946	16868	10.339506157101	108
946	16920	10.360382690662	108
946	16989	10.368529481845	124
947	12199	10.000106750519	14
947	12381	10.00936213918	100
947	12426	10.009406576307	14
947	13936	10.0645663435	14
947	14029	10.064823544514	14
947	14081	10.066853101889	88
947	14120	10.066897430798	14
947	14161	10.067305430798	88
947	14549	10.079786374981	96
947	14588	10.07983070389	14
947	14677	10.080323141017	96
947	14769	10.080900213123	96
947	15555	10.127336042063	92
947	15676	10.136339625168	14
947	15788	10.137913024211	14
947	15827	10.138081024211	92
947	16015	10.157749805708	84
947	16060	10.157794242835	14
947	16153	10.161158109155	14
947	16412	10.165061773522	96
949	12199	10.000106750519	14
949	12381	10.00936213918	100
949	12426	10.009406576307	14
949	13936	10.0645663435	14
949	14029	10.064823544514	14
949	14081	10.066853101889	88
949	14120	10.066897430798	14
949	14161	10.067305430798	88
949	14549	10.079786374981	96
949	14588	10.07983070389	14
949	14677	10.080323141017	96
949	14769	10.080900213123	96
949	15555	10.127336042063	92
949	15676	10.136339625168	14
949	15788	10.137913024211	14
949	15827	10.138081024211	92
949	16015	10.157749805708	84
949	16060	10.157794242835	14
949	16153	10.161158109155	14
949	16412	10.165061773522	96
954	0	0	0
954	0	0	0
954	0	0	2
954	36	0.001878979802	3
954	52	0.001932979802	2
954	898	1.001878979802	3
954	914	1.001932979802	2
954	1760	2.001878979802	3
954	1776	2.001932979802	2
954	2879	2.162070502061	3
954	2895	2.162136502061	2
954	3484	3.001878979802	3
954	3500	3.001932979802	2
954	4346	4.001878979802	3
954	4362	4.001932979802	2
954	5465	4.162070502061	3
954	5481	4.162136502061	2
954	6084	5.001878979802	3
954	6100	5.001932979802	2
954	6946	6.001878979802	3
954	6962	6.001932979802	2
954	8065	6.162070502061	3
954	8081	6.162136502061	2
954	8670	7.001878979802	3
954	8686	7.001932979802	2
954	9532	8.001878979802	3
954	9548	8.001932979802	2
954	10651	8.162070502061	3
954	10667	8.162136502061	2
954	11256	9.001878979802	3
954	11272	9.001932979802	2
954	12294	10.001878979802	3
954	12310	10.001932979802	2
954	12476	10.009968905216	3
954	12495	10.010002905216	2
954	14294	10.075278986759	3
954	14310	10.075340986759	2
954	15406	10.126241261523	3
954	15424	10.126275261523	2
954	15446	10.126605261523	3
954	15462	10.126663261523	2
954	16169	10.162070502061	3
954	16185	10.162136502061	2
954	16269	10.164479043786	3
954	16287	10.164513043786	2
954	16309	10.164703043786	3
954	16325	10.164765043786	2
955	0	0	1
955	36	0.001878979802	0
955	52	0.001932979802	1
955	96	0.011827807244	3
955	116	0.011881807244	1
955	536	0.056843839212	3
955	576	0.056897839212	1
955	671	0.077423761534	3
955	701	0.077477761534	1
955	737	0.078053307835	3
955	762	0.078107307835	1
955	898	1.001878979802	0
955	914	1.001932979802	1
955	958	1.011827807244	3
955	978	1.011881807244	1
955	1398	1.056843839212	3
955	1438	1.056897839212	1
955	1533	1.077423761534	3
955	1563	1.077477761534	1
955	1599	1.078053307835	3
955	1624	1.078107307835	1
955	1760	2.001878979802	0
955	1776	2.001932979802	1
955	1820	2.011827807244	3
955	1840	2.011881807244	1
955	2332	2.056843839212	3
955	2372	2.056897839212	1
955	2469	2.067609531012	3
955	2509	2.067683531012	1
955	2540	2.077423761534	3
955	2570	2.077477761534	1
955	2607	2.078053307835	3
955	2632	2.078107307835	1
955	2879	2.162070502061	0
955	2895	2.162136502061	1
955	3198	2.339440157101	3
955	3223	2.339506157101	1
955	3255	2.360316690662	3
955	3275	2.360382690662	1
955	3314	2.368459481845	3
955	3344	2.368529481845	1
955	3484	3.001878979802	0
955	3500	3.001932979802	1
955	3544	3.011827807244	3
955	3564	3.011881807244	1
955	3984	3.056843839212	3
955	4024	3.056897839212	1
955	4119	3.077423761534	3
955	4149	3.077477761534	1
955	4185	3.078053307835	3
955	4210	3.078107307835	1
955	4346	4.001878979802	0
955	4362	4.001932979802	1
955	4406	4.011827807244	3
955	4426	4.011881807244	1
955	4918	4.056843839212	3
955	4958	4.056897839212	1
955	5055	4.067609531012	3
955	5095	4.067683531012	1
955	5126	4.077423761534	3
955	5156	4.077477761534	1
955	5193	4.078053307835	3
955	5218	4.078107307835	1
955	5465	4.162070502061	0
955	5481	4.162136502061	1
955	5784	4.339440157101	3
955	5809	4.339506157101	1
955	5841	4.360316690662	3
955	5861	4.360382690662	1
955	5900	4.368459481845	3
955	5930	4.368529481845	1
955	6084	5.001878979802	0
955	6100	5.001932979802	1
955	6144	5.011827807244	3
955	6164	5.011881807244	1
955	6584	5.056843839212	3
955	6624	5.056897839212	1
955	6719	5.077423761534	3
955	6749	5.077477761534	1
955	6785	5.078053307835	3
955	6810	5.078107307835	1
955	6946	6.001878979802	0
955	6962	6.001932979802	1
955	7006	6.011827807244	3
955	7026	6.011881807244	1
955	7518	6.056843839212	3
955	7558	6.056897839212	1
955	7655	6.067609531012	3
955	7695	6.067683531012	1
955	7726	6.077423761534	3
955	7756	6.077477761534	1
955	7793	6.078053307835	3
955	7818	6.078107307835	1
955	8065	6.162070502061	0
955	8081	6.162136502061	1
955	8384	6.339440157101	3
955	8409	6.339506157101	1
955	8441	6.360316690662	3
955	8461	6.360382690662	1
955	8500	6.368459481845	3
955	8530	6.368529481845	1
955	8670	7.001878979802	0
955	8686	7.001932979802	1
955	8730	7.011827807244	3
955	8750	7.011881807244	1
955	9170	7.056843839212	3
955	9210	7.056897839212	1
955	9305	7.077423761534	3
955	9335	7.077477761534	1
955	9371	7.078053307835	3
955	9396	7.078107307835	1
955	9532	8.001878979802	0
955	9548	8.001932979802	1
955	9592	8.011827807244	3
955	9612	8.011881807244	1
955	10104	8.056843839212	3
955	10144	8.056897839212	1
955	10241	8.067609531012	3
955	10281	8.067683531012	1
955	10312	8.077423761534	3
955	10342	8.077477761534	1
955	10379	8.078053307835	3
955	10404	8.078107307835	1
955	10651	8.162070502061	0
955	10667	8.162136502061	1
955	10970	8.339440157101	3
955	10995	8.339506157101	1
955	11027	8.360316690662	3
955	11047	8.360382690662	1
955	11086	8.368459481845	3
955	11116	8.368529481845	1
955	11256	9.001878979802	0
955	11272	9.001932979802	1
955	11316	9.011827807244	3
955	11336	9.011881807244	1
955	11756	9.056843839212	3
955	11796	9.056897839212	1
955	11891	9.077423761534	3
955	11921	9.077477761534	1
955	11957	9.078053307835	3
955	11982	9.078107307835	1
955	12179	10.000072750519	3
955	12198	10.000106750519	1
955	12294	10.001878979802	0
955	12310	10.001932979802	1
955	12359	10.00930013918	3
955	12380	10.00936213918	1
955	12401	10.009372576307	3
955	12425	10.009406576307	1
955	12441	10.009896905216	3
955	12458	10.009958905216	1
955	12476	10.009968905216	0
955	12495	10.010002905216	1
955	12528	10.011827807244	3
955	12548	10.011881807244	1
955	13734	10.056843839212	3
955	13774	10.056897839212	1
955	13912	10.0645323435	3
955	13935	10.0645663435	1
955	14001	10.064789544514	3
955	14028	10.064823544514	1
955	14052	10.066795101889	3
955	14080	10.066853101889	1
955	14095	10.066863430798	3
955	14119	10.066897430798	1
955	14139	10.067247430798	3
955	14160	10.067305430798	1
955	14224	10.067609531012	3
955	14264	10.067683531012	1
955	14294	10.075278986759	0
955	14310	10.075340986759	1
955	14336	10.075351716495	3
955	14356	10.075385716495	1
955	14387	10.077423761534	3
955	14417	10.077477761534	1
955	14454	10.078053307835	3
955	14479	10.078107307835	1
955	14524	10.079724374981	3
955	14548	10.079786374981	1
955	14563	10.07979670389	3
955	14587	10.07983070389	1
955	14656	10.080261141017	3
955	14676	10.080323141017	1
955	14744	10.080838213123	3
955	14768	10.080900213123	1
955	15366	10.126173261523	3
955	15382	10.126231261523	1
955	15406	10.126241261523	0
955	15424	10.126275261523	1
955	15446	10.126605261523	0
955	15462	10.126663261523	1
955	15493	10.126674042063	3
955	15514	10.126708042063	1
955	15533	10.127278042063	3
955	15554	10.127336042063	1
955	15655	10.136305625168	3
955	15675	10.136339625168	1
955	15759	10.137879024211	3
955	15787	10.137913024211	1
955	15806	10.138023024211	3
955	15826	10.138081024211	1
955	15993	10.157691805708	3
955	16014	10.157749805708	1
955	16035	10.157760242835	3
955	16059	10.157794242835	1
955	16125	10.161124109155	3
955	16152	10.161158109155	1
955	16169	10.162070502061	0
955	16185	10.162136502061	1
955	16229	10.164407043786	3
955	16245	10.164469043786	1
955	16269	10.164479043786	0
955	16287	10.164513043786	1
955	16309	10.164703043786	0
955	16325	10.164765043786	1
955	16355	10.164775773522	3
955	16375	10.164809773522	1
955	16395	10.164999773522	3
955	16411	10.165061773522	1
955	16842	10.339440157101	3
955	16867	10.339506157101	1
955	16899	10.360316690662	3
955	16919	10.360382690662	1
955	16958	10.368459481845	3
955	16988	10.368529481845	1
956	36	0.001878979802	1
956	37	0.001878979802	2
956	51	0.001932979802	1
956	52	0.001932979802	0
956	898	1.001878979802	1
956	899	1.001878979802	2
956	913	1.001932979802	1
956	914	1.001932979802	0
956	1760	2.001878979802	1
956	1761	2.001878979802	2
956	1775	2.001932979802	1
956	1776	2.001932979802	0
956	2879	2.162070502061	1
956	2880	2.162070502061	2
956	2894	2.162136502061	1
956	2895	2.162136502061	0
956	3484	3.001878979802	1
956	3485	3.001878979802	2
956	3499	3.001932979802	1
956	3500	3.001932979802	0
956	4346	4.001878979802	1
956	4347	4.001878979802	2
956	4361	4.001932979802	1
956	4362	4.001932979802	0
956	5465	4.162070502061	1
956	5466	4.162070502061	2
956	5480	4.162136502061	1
956	5481	4.162136502061	0
956	6084	5.001878979802	1
956	6085	5.001878979802	2
956	6099	5.001932979802	1
956	6100	5.001932979802	0
956	6946	6.001878979802	1
956	6947	6.001878979802	2
956	6961	6.001932979802	1
956	6962	6.001932979802	0
956	8065	6.162070502061	1
956	8066	6.162070502061	2
956	8080	6.162136502061	1
956	8081	6.162136502061	0
956	8670	7.001878979802	1
956	8671	7.001878979802	2
956	8685	7.001932979802	1
956	8686	7.001932979802	0
956	9532	8.001878979802	1
956	9533	8.001878979802	2
956	9547	8.001932979802	1
956	9548	8.001932979802	0
956	10651	8.162070502061	1
956	10652	8.162070502061	2
956	10666	8.162136502061	1
956	10667	8.162136502061	0
956	11256	9.001878979802	1
956	11257	9.001878979802	2
956	11271	9.001932979802	1
956	11272	9.001932979802	0
956	12294	10.001878979802	1
956	12295	10.001878979802	2
956	12309	10.001932979802	1
956	12310	10.001932979802	0
956	12476	10.009968905216	1
956	12477	10.009968905216	2
956	12494	10.010002905216	1
956	12495	10.010002905216	0
956	14294	10.075278986759	1
956	14295	10.075278986759	2
956	14309	10.075340986759	1
956	14310	10.075340986759	0
956	15406	10.126241261523	1
956	15407	10.126241261523	2
956	15423	10.126275261523	1
956	15424	10.126275261523	0
956	15446	10.126605261523	1
956	15447	10.126605261523	2
956	15461	10.126663261523	1
956	15462	10.126663261523	0
956	16169	10.162070502061	1
956	16170	10.162070502061	2
956	16184	10.162136502061	1
956	16185	10.162136502061	0
956	16269	10.164479043786	1
956	16270	10.164479043786	2
956	16286	10.164513043786	1
956	16287	10.164513043786	0
956	16309	10.164703043786	1
956	16310	10.164703043786	2
956	16324	10.164765043786	1
956	16325	10.164765043786	0
957	0	0	0
966	30	0.001878979802	14
966	892	1.001878979802	14
966	1754	2.001878979802	14
966	2873	2.162070502061	52
966	3478	3.001878979802	14
966	4340	4.001878979802	14
966	5459	4.162070502061	52
966	6078	5.001878979802	14
966	6940	6.001878979802	14
966	8059	6.162070502061	52
966	8664	7.001878979802	14
966	9526	8.001878979802	14
966	10645	8.162070502061	52
966	11250	9.001878979802	14
966	12288	10.001878979802	14
966	14288	10.075278986759	48
966	15388	10.126231261523	36
966	16163	10.162070502061	52
966	16251	10.164469043786	40
967	120	0.011881807244	14
967	580	0.056897839212	14
967	705	0.077477761534	14
967	766	0.078107307835	14
967	982	1.011881807244	14
967	1442	1.056897839212	14
967	1567	1.077477761534	14
967	1628	1.078107307835	14
967	1844	2.011881807244	14
967	2376	2.056897839212	14
967	2513	2.067683531012	76
967	2574	2.077477761534	14
967	2636	2.078107307835	14
967	3227	2.339506157101	52
967	3279	2.360382690662	52
967	3348	2.368529481845	68
967	3568	3.011881807244	14
967	4028	3.056897839212	14
967	4153	3.077477761534	14
967	4214	3.078107307835	14
967	4430	4.011881807244	14
967	4962	4.056897839212	14
967	5099	4.067683531012	76
967	5160	4.077477761534	14
967	5222	4.078107307835	14
967	5813	4.339506157101	52
967	5865	4.360382690662	52
967	5934	4.368529481845	68
967	6168	5.011881807244	14
967	6628	5.056897839212	14
967	6753	5.077477761534	14
967	6814	5.078107307835	14
967	7030	6.011881807244	14
967	7562	6.056897839212	14
967	7699	6.067683531012	76
967	7760	6.077477761534	14
967	7822	6.078107307835	14
967	8413	6.339506157101	52
967	8465	6.360382690662	52
967	8534	6.368529481845	68
967	8754	7.011881807244	14
967	9214	7.056897839212	14
967	9339	7.077477761534	14
967	9400	7.078107307835	14
967	9616	8.011881807244	14
967	10148	8.056897839212	14
967	10285	8.067683531012	76
967	10346	8.077477761534	14
967	10408	8.078107307835	14
967	10999	8.339506157101	52
967	11051	8.360382690662	52
967	11120	8.368529481845	68
967	11340	9.011881807244	14
967	11800	9.056897839212	14
967	11925	9.077477761534	14
967	11986	9.078107307835	14
967	12462	10.009958905216	44
967	12552	10.011881807244	14
967	13778	10.056897839212	14
967	14268	10.067683531012	76
967	14421	10.077477761534	14
967	14483	10.078107307835	14
967	15386	10.126231261523	36
967	16249	10.164469043786	40
967	16871	10.339506157101	52
967	16923	10.360382690662	52
967	16992	10.368529481845	68
968	0	0	0
968	120	0.011881807244	1
968	580	0.056897839212	2
968	705	0.077477761534	3
968	766	0.078107307835	4
968	982	1.011881807244	5
968	1442	1.056897839212	6
968	1567	1.077477761534	7
968	1628	1.078107307835	8
968	1844	2.011881807244	9
968	2376	2.056897839212	10
968	2513	2.067683531012	11
968	2574	2.077477761534	12
968	2636	2.078107307835	13
968	3227	2.339506157101	14
968	3279	2.360382690662	15
968	3348	2.368529481845	16
968	3568	3.011881807244	17
968	4028	3.056897839212	18
968	4153	3.077477761534	19
968	4214	3.078107307835	20
968	4430	4.011881807244	21
968	4962	4.056897839212	22
968	5099	4.067683531012	23
968	5160	4.077477761534	24
968	5222	4.078107307835	25
968	5813	4.339506157101	26
968	5865	4.360382690662	27
968	5934	4.368529481845	28
968	6168	5.011881807244	29
968	6628	5.056897839212	30
968	6753	5.077477761534	31
968	6814	5.078107307835	32
968	7030	6.011881807244	33
968	7562	6.056897839212	34
968	7699	6.067683531012	35
968	7760	6.077477761534	36
968	7822	6.078107307835	37
968	8413	6.339506157101	38
968	8465	6.360382690662	39
968	8534	6.368529481845	40
968	8754	7.011881807244	41
968	9214	7.056897839212	42
968	9339	7.077477761534	43
968	9400	7.078107307835	44
968	9616	8.011881807244	45
968	10148	8.056897839212	46
968	10285	8.067683531012	47
968	10346	8.077477761534	48
968	10408	8.078107307835	49
968	10999	8.339506157101	50
968	11051	8.360382690662	51
968	11120	8.368529481845	52
968	11340	9.011881807244	53
968	11800	9.056897839212	54
968	11925	9.077477761534	55
968	11986	9.078107307835	56
968	12462	10.009958905216	57
968	12552	10.011881807244	58
968	13778	10.056897839212	59
968	14268	10.067683531012	60
968	14421	10.077477761534	61
968	14483	10.078107307835	62
968	15386	10.126231261523	63
968	16249	10.164469043786	64
968	16871	10.339506157101	65
968	16923	10.360382690662	66
968	16992	10.368529481845	67
969	0	0	0
970	0	0	0
8	17152	11.000070608451	13596106.222469
10	17152	11.000070608451	13596106.222469
82	17152	10.3	8640
82	17152	10.4	0
82	17152	10.5	0
82	17152	10.6	0
82	17152	10.7	0
82	17152	10.8	0
82	17152	10.9	0
82	17152	11	0
82	17152	11.000070608451	0
84	17152	10.3	8640
84	17152	10.4	0
84	17152	10.5	0
84	17152	10.6	0
84	17152	10.7	0
84	17152	10.8	0
84	17152	10.9	0
84	17152	11	0
84	17152	11.000070608451	0
151	17152	11.000070608451	13596106.222469
153	17152	10.4	8640
153	17152	10.5	0
153	17152	10.6	0
153	17152	10.7	0
153	17152	10.8	0
153	17152	10.9	0
153	17152	11	0
153	17152	11.000070608451	0
220	17152	10.4	8640
220	17152	10.5	0
220	17152	10.6	0
220	17152	10.7	0
220	17152	10.8	0
220	17152	10.9	0
220	17152	11	0
220	17152	11.000070608451	0
222	17152	10.4	8640
222	17152	10.5	0
222	17152	10.6	0
222	17152	10.7	0
222	17152	10.8	0
222	17152	10.9	0
222	17152	11	0
222	17152	11.000070608451	0
289	17152	10.3	9280
289	17152	10.4	0
289	17152	10.5	0
289	17152	10.6	0
289	17152	10.7	0
289	17152	10.8	0
289	17152	10.9	0
289	17152	11	0
289	17152	11.000070608451	0
291	17152	10.3	9280
291	17152	10.4	0
291	17152	10.5	0
291	17152	10.6	0
291	17152	10.7	0
291	17152	10.8	0
291	17152	10.9	0
291	17152	11	0
291	17152	11.000070608451	0
358	17152	10.3	8640
358	17152	10.4	0
358	17152	10.5	0
358	17152	10.6	0
358	17152	10.7	0
358	17152	10.8	0
358	17152	10.9	0
358	17152	11	0
358	17152	11.000070608451	0
360	17152	10.3	8640
360	17152	10.4	0
360	17152	10.5	0
360	17152	10.6	0
360	17152	10.7	0
360	17152	10.8	0
360	17152	10.9	0
360	17152	11	0
360	17152	11.000070608451	0
427	17152	10.4	8640
427	17152	10.5	0
427	17152	10.6	0
427	17152	10.7	0
427	17152	10.8	0
427	17152	10.9	0
427	17152	11	0
427	17152	11.000070608451	0
429	17152	10.4	8640
429	17152	10.5	0
429	17152	10.6	0
429	17152	10.7	0
429	17152	10.8	0
429	17152	10.9	0
429	17152	11	0
429	17152	11.000070608451	0
496	17152	10.2	21760
496	17152	10.3	0
496	17152	10.4	0
496	17152	10.5	0
496	17152	10.6	0
496	17152	10.7	0
496	17152	10.8	0
496	17152	10.9	0
496	17152	11	0
496	17152	11.000070608451	0
498	17152	10.2	21760
498	17152	10.3	0
498	17152	10.4	0
498	17152	10.5	0
498	17152	10.6	0
498	17152	10.7	0
498	17152	10.8	0
498	17152	10.9	0
498	17152	11	0
498	17152	11.000070608451	0
565	17152	10.3	11200
565	17152	10.4	0
565	17152	10.5	0
565	17152	10.6	0
565	17152	10.7	0
565	17152	10.8	0
565	17152	10.9	0
565	17152	11	0
565	17152	11.000070608451	0
567	17152	10.3	11200
567	17152	10.4	0
567	17152	10.5	0
567	17152	10.6	0
567	17152	10.7	0
567	17152	10.8	0
567	17152	10.9	0
567	17152	11	0
567	17152	11.000070608451	0
634	17152	10.1	13600
634	17152	10.2	0
634	17152	10.3	0
634	17152	10.4	0
634	17152	10.5	0
634	17152	10.6	0
634	17152	10.7	0
634	17152	10.8	0
634	17152	10.9	0
634	17152	11	0
634	17152	11.000070608451	0
636	17152	10.1	13600
636	17152	10.2	0
636	17152	10.3	0
636	17152	10.4	0
636	17152	10.5	0
636	17152	10.6	0
636	17152	10.7	0
636	17152	10.8	0
636	17152	10.9	0
636	17152	11	0
636	17152	11.000070608451	0
703	17152	10.4	9920
703	17152	10.5	0
703	17152	10.6	0
703	17152	10.7	0
703	17152	10.8	0
703	17152	10.9	0
703	17152	11	0
703	17152	11.000070608451	0
705	17152	10.4	9920
705	17152	10.5	0
705	17152	10.6	0
705	17152	10.7	0
705	17152	10.8	0
705	17152	10.9	0
705	17152	11	0
705	17152	11.000070608451	0
772	17152	10.2	8640
772	17152	10.3	0
772	17152	10.4	0
772	17152	10.5	0
772	17152	10.6	0
772	17152	10.7	0
772	17152	10.8	0
772	17152	10.9	0
772	17152	11	0
772	17152	11.000070608451	0
774	17152	10.2	8640
774	17152	10.3	0
774	17152	10.4	0
774	17152	10.5	0
774	17152	10.6	0
774	17152	10.7	0
774	17152	10.8	0
774	17152	10.9	0
774	17152	11	0
774	17152	11.000070608451	0
841	17152	10.2	7360
841	17152	10.3	0
841	17152	10.4	0
841	17152	10.5	0
841	17152	10.6	0
841	17152	10.7	0
841	17152	10.8	0
841	17152	10.9	0
841	17152	11	0
841	17152	11.000070608451	0
843	17152	10.2	7360
843	17152	10.3	0
843	17152	10.4	0
843	17152	10.5	0
843	17152	10.6	0
843	17152	10.7	0
843	17152	10.8	0
843	17152	10.9	0
843	17152	11	0
843	17152	11.000070608451	0
910	17152	10.2	23680
910	17152	10.3	0
910	17152	10.4	0
910	17152	10.5	0
910	17152	10.6	0
910	17152	10.7	0
910	17152	10.8	0
910	17152	10.9	0
910	17152	11	0
910	17152	11.000070608451	0
912	17152	10.2	23680
912	17152	10.3	0
912	17152	10.4	0
912	17152	10.5	0
912	17152	10.6	0
912	17152	10.7	0
912	17152	10.8	0
912	17152	10.9	0
912	17152	11	0
912	17152	11.000070608451	0

