version 3
run General-0-20260211-17:46:11-10445
attr configname General
attr datetime 20260211-17:46:11
attr datetimef 20260211-174611
attr experiment General
attr inifile omnetpp.ini
attr iterationvars ""
attr iterationvarsd ""
attr iterationvarsf ""
attr measurement ""
attr network ZrpTestNetworkBig
attr processid 10445
attr repetition 0
attr replication #0
attr resultdir results
attr runnumber 0
attr seedset 0
config image-path ../../../inet-4.5.4/images
config network ZrpTestNetworkBig
config sim-time-limit 100s
config *.configurator.addStaticRoutes false
config **.netmaskRoutes "\"\""
config **.arp.typename GlobalArp
config **.wlan[*].bitrate 24Mbps
config **.transmitter.power 1mW
config **.displayCommunicationRanges true
config *.source.numApps 2
config *.source.app[0].typename PingApp
config *.source.app[0].destAddr "\"destination\""
config *.source.app[0].startTime 10s
config *.source.app[0].sendInterval 1s
config *.source.app[0].printPing true
config *.source.app[1].typename sa_zrp.Zrp
config *.destination.numApps 1
config *.destination.app[0].typename sa_zrp.Zrp
config *.node*.numApps 1
config *.node*.app[0].typename sa_zrp.Zrp
config **.app[*].zoneRadius 2
config **.app[*].NDP_helloInterval 1s
config **.app[*].IARP_updateInterval 2s
config **.app[*].linkStateLifetime 5s
config **.app[*].interface "\"wlan0\""
config **.app[*].debugInterval 5s
config *.visualizer.*.numDataLinkVisualizers 3
config *.visualizer.*.dataLinkVisualizer[*].activityLevel "\"peer\""
config *.visualizer.*.dataLinkVisualizer[*].displayLinks true
config *.visualizer.*.dataLinkVisualizer[0].packetFilter "\"NDP_Hello\""
config *.visualizer.*.dataLinkVisualizer[0].*Color "\"green\""
config *.visualizer.*.dataLinkVisualizer[1].packetFilter "\"IARP_LinkStateUpdate\""
config *.visualizer.*.dataLinkVisualizer[1].*Color "\"orange\""
config *.visualizer.*.dataLinkVisualizer[2].packetFilter "\"ping*\""
config *.visualizer.*.dataLinkVisualizer[2].*Color "\"blue\""
config *.visualizer.*.networkRouteVisualizer[0].displayRoutes true
config *.visualizer.*.networkRouteVisualizer[0].packetFilter "\"*ping*\""
config *.visualizer.*.routingTableVisualizer[0].displayRoutingTables true
config *.visualizer.*.routingTableVisualizer[0].displayLabels false
config *.visualizer.*.routingTableVisualizer[0].displayRoutesIndividually false
config *.visualizer.*.routingTableVisualizer[0].lineShift 0
config *.visualizer.*.interfaceTableVisualizer[0].displayInterfaceTables true
config *.visualizer.*.interfaceTableVisualizer[0].format "\"%a/%l\""
config *.visualizer.*.mediumVisualizer[0].displaySignals true
config *.visualizer.*.mediumVisualizer[0].signalPropagationAnimationSpeed 500
config *.visualizer.*.infoVisualizer[0].displayInfos true
config *.visualizer.*.infoVisualizer[0].modules "\"*.*.app[0]\""
config *.visualizer.*.infoVisualizer[0].format "\"N:%p, Z:%t\""

par ZrpTestNetworkBig.radioMedium.propagation typename "\"inet.physicallayer.wireless.common.propagation.ConstantSpeedPropagation\""
par ZrpTestNetworkBig.radioMedium.propagation propagationSpeed 2.99792e+08mps
attr unit mps
par ZrpTestNetworkBig.radioMedium.propagation ignoreMovementDuringTransmission true
par ZrpTestNetworkBig.radioMedium.propagation ignoreMovementDuringPropagation true
par ZrpTestNetworkBig.radioMedium.propagation ignoreMovementDuringReception true
scalar ZrpTestNetworkBig.radioMedium.propagation "Arrival computation count" 3887
par ZrpTestNetworkBig.radioMedium.analogModel typename "\"inet.physicallayer.wireless.common.analogmodel.packetlevel.ScalarAnalogModel\""
par ZrpTestNetworkBig.radioMedium.analogModel ignorePartialInterference false
par ZrpTestNetworkBig.radioMedium.backgroundNoise typename "\"inet.physicallayer.wireless.common.backgroundnoise.IsotropicScalarBackgroundNoise\""
par ZrpTestNetworkBig.radioMedium.backgroundNoise power -110dBm
attr unit dBm
par ZrpTestNetworkBig.radioMedium.backgroundNoise bandwidth "nan Hz"
attr unit Hz
par ZrpTestNetworkBig.radioMedium.pathLoss typename "\"inet.physicallayer.wireless.common.pathloss.FreeSpacePathLoss\""
par ZrpTestNetworkBig.radioMedium.pathLoss alpha 2
par ZrpTestNetworkBig.radioMedium.pathLoss systemLoss 0dB
attr unit dB
par ZrpTestNetworkBig.radioMedium.mediumLimitCache typename "\"inet.physicallayer.wireless.common.medium.MediumLimitCache\""
par ZrpTestNetworkBig.radioMedium.mediumLimitCache centerFrequency 2.4e+09Hz
attr unit Hz
par ZrpTestNetworkBig.radioMedium.mediumLimitCache maxSpeed "nan mps"
attr unit mps
par ZrpTestNetworkBig.radioMedium.mediumLimitCache maxTransmissionPower "nan W"
attr unit W
par ZrpTestNetworkBig.radioMedium.mediumLimitCache minInterferencePower -110dBm
attr unit dBm
par ZrpTestNetworkBig.radioMedium.mediumLimitCache minReceptionPower -85dBm
attr unit dBm
par ZrpTestNetworkBig.radioMedium.mediumLimitCache maxAntennaGain 0dB
attr unit dB
par ZrpTestNetworkBig.radioMedium.mediumLimitCache minInterferenceTime 1e-12s
attr unit s
par ZrpTestNetworkBig.radioMedium.mediumLimitCache maxTransmissionDuration 0.01s
attr unit s
par ZrpTestNetworkBig.radioMedium.mediumLimitCache maxCommunicationRange "nan m"
attr unit m
par ZrpTestNetworkBig.radioMedium.mediumLimitCache maxInterferenceRange "nan m"
attr unit m
par ZrpTestNetworkBig.radioMedium.communicationCache typename "\"inet.physicallayer.wireless.common.communicationcache.VectorCommunicationCache\""
par ZrpTestNetworkBig.radioMedium typename "\"inet.physicallayer.wireless.ieee80211.packetlevel.Ieee80211ScalarRadioMedium\""
par ZrpTestNetworkBig.radioMedium physicalEnvironmentModule "\"physicalEnvironment\""
par ZrpTestNetworkBig.radioMedium signalAnalogRepresentation "\"scalar\""
attr enum unitDisk,scalar,dimensional
par ZrpTestNetworkBig.radioMedium rangeFilter "\"\""
par ZrpTestNetworkBig.radioMedium radioModeFilter false
par ZrpTestNetworkBig.radioMedium listeningFilter false
par ZrpTestNetworkBig.radioMedium macAddressFilter false
par ZrpTestNetworkBig.radioMedium recordTransmissionLog false
par ZrpTestNetworkBig.radioMedium recordReceptionLog false
scalar ZrpTestNetworkBig.radioMedium "transmission count" 299
scalar ZrpTestNetworkBig.radioMedium "signal send count" 3887
scalar ZrpTestNetworkBig.radioMedium "reception computation count" 3887
scalar ZrpTestNetworkBig.radioMedium "interference computation count" 11978
scalar ZrpTestNetworkBig.radioMedium "reception decision computation count" 1435
scalar ZrpTestNetworkBig.radioMedium "listening decision computation count" 6656
scalar ZrpTestNetworkBig.radioMedium "reception cache hit" 80.421095048607
attr unit %
scalar ZrpTestNetworkBig.radioMedium "interference cache hit" 66.666666666667
attr unit %
scalar ZrpTestNetworkBig.radioMedium "noise cache hit" 0
attr unit %
scalar ZrpTestNetworkBig.radioMedium "snir cache hit" 50
attr unit %
scalar ZrpTestNetworkBig.radioMedium "reception decision cache hit" 50
attr unit %
scalar ZrpTestNetworkBig.radioMedium "reception result cache hit" 0
attr unit %
par ZrpTestNetworkBig.configurator typename "\"inet.networklayer.configurator.ipv4.Ipv4NetworkConfigurator\""
par ZrpTestNetworkBig.configurator minLinkWeight 0.001
par ZrpTestNetworkBig.configurator configureIsolatedNetworksSeparatly false
par ZrpTestNetworkBig.configurator config "<config>...</config> at content:1"
par ZrpTestNetworkBig.configurator assignAddresses true
par ZrpTestNetworkBig.configurator assignUniqueAddresses true
par ZrpTestNetworkBig.configurator assignDisjunctSubnetAddresses true
par ZrpTestNetworkBig.configurator addStaticRoutes false
par ZrpTestNetworkBig.configurator addDefaultRoutes true
par ZrpTestNetworkBig.configurator addSubnetRoutes true
par ZrpTestNetworkBig.configurator addDirectRoutes true
par ZrpTestNetworkBig.configurator optimizeRoutes true
par ZrpTestNetworkBig.configurator dumpTopology false
par ZrpTestNetworkBig.configurator dumpLinks false
par ZrpTestNetworkBig.configurator dumpAddresses false
par ZrpTestNetworkBig.configurator dumpRoutes false
par ZrpTestNetworkBig.configurator dumpConfig "\"\""
par ZrpTestNetworkBig.visualizer.canvasVisualizer.sceneVisualizer[0] typename "\"inet.visualizer.canvas.scene.SceneCanvasVisualizer\""
par ZrpTestNetworkBig.visualizer.canvasVisualizer.sceneVisualizer[0] visualizationTargetModule "\"^.^.^\""
par ZrpTestNetworkBig.visualizer.canvasVisualizer.sceneVisualizer[0] visualizationSubjectModule "\"^.^.^\""
par ZrpTestNetworkBig.visualizer.canvasVisualizer.sceneVisualizer[0] tags "\"\""
par ZrpTestNetworkBig.visualizer.canvasVisualizer.sceneVisualizer[0] physicalEnvironmentModule "\"physicalEnvironment\""
par ZrpTestNetworkBig.visualizer.canvasVisualizer.sceneVisualizer[0] networkNodeVisualizerModule "\"ZrpTestNetworkBig.visualizer.canvasVisualizer.networkNodeVisualizer[0]\""
par ZrpTestNetworkBig.visualizer.canvasVisualizer.sceneVisualizer[0] axisLength "nan m"
attr mutable ""
attr unit m
par ZrpTestNetworkBig.visualizer.canvasVisualizer.sceneVisualizer[0] animationSpeed 0
par ZrpTestNetworkBig.visualizer.canvasVisualizer.sceneVisualizer[0] sceneMinX "nan m"
attr unit m
par ZrpTestNetworkBig.visualizer.canvasVisualizer.sceneVisualizer[0] sceneMinY "nan m"
attr unit m
par ZrpTestNetworkBig.visualizer.canvasVisualizer.sceneVisualizer[0] sceneMinZ "nan m"
attr unit m
par ZrpTestNetworkBig.visualizer.canvasVisualizer.sceneVisualizer[0] sceneMaxX "nan m"
attr unit m
par ZrpTestNetworkBig.visualizer.canvasVisualizer.sceneVisualizer[0] sceneMaxY "nan m"
attr unit m
par ZrpTestNetworkBig.visualizer.canvasVisualizer.sceneVisualizer[0] sceneMaxZ "nan m"
attr unit m
par ZrpTestNetworkBig.visualizer.canvasVisualizer.sceneVisualizer[0] zIndex 0
par ZrpTestNetworkBig.visualizer.canvasVisualizer.sceneVisualizer[0] viewAngle "\"x right y down z out\""
attr mutable ""
par ZrpTestNetworkBig.visualizer.canvasVisualizer.sceneVisualizer[0] viewScale "\"1 1\""
attr mutable ""
par ZrpTestNetworkBig.visualizer.canvasVisualizer.sceneVisualizer[0] viewTranslation "\"0 0\""
attr mutable ""
par ZrpTestNetworkBig.visualizer.canvasVisualizer.sceneVisualizer[0] descriptionFigure "\"\""
par ZrpTestNetworkBig.visualizer.canvasVisualizer.physicalEnvironmentVisualizer[0] typename "\"inet.visualizer.canvas.environment.PhysicalEnvironmentCanvasVisualizer\""
par ZrpTestNetworkBig.visualizer.canvasVisualizer.physicalEnvironmentVisualizer[0] visualizationTargetModule "\"^.^.^\""
par ZrpTestNetworkBig.visualizer.canvasVisualizer.physicalEnvironmentVisualizer[0] visualizationSubjectModule "\"^.^.^\""
par ZrpTestNetworkBig.visualizer.canvasVisualizer.physicalEnvironmentVisualizer[0] tags "\"\""
par ZrpTestNetworkBig.visualizer.canvasVisualizer.physicalEnvironmentVisualizer[0] physicalEnvironmentModule "\"physicalEnvironment\""
par ZrpTestNetworkBig.visualizer.canvasVisualizer.physicalEnvironmentVisualizer[0] displayObjects true
par ZrpTestNetworkBig.visualizer.canvasVisualizer.physicalEnvironmentVisualizer[0] zIndex 0
par ZrpTestNetworkBig.visualizer.canvasVisualizer.networkNodeVisualizer[0] typename "\"inet.visualizer.canvas.scene.NetworkNodeCanvasVisualizer\""
par ZrpTestNetworkBig.visualizer.canvasVisualizer.networkNodeVisualizer[0] visualizationTargetModule "\"^.^.^\""
par ZrpTestNetworkBig.visualizer.canvasVisualizer.networkNodeVisualizer[0] visualizationSubjectModule "\"^.^.^\""
par ZrpTestNetworkBig.visualizer.canvasVisualizer.networkNodeVisualizer[0] tags "\"\""
par ZrpTestNetworkBig.visualizer.canvasVisualizer.networkNodeVisualizer[0] nodeFilter "\"*\""
attr mutable ""
par ZrpTestNetworkBig.visualizer.canvasVisualizer.networkNodeVisualizer[0] annotationSpacing 4
par ZrpTestNetworkBig.visualizer.canvasVisualizer.networkNodeVisualizer[0] placementPenalty 10
par ZrpTestNetworkBig.visualizer.canvasVisualizer.networkNodeVisualizer[0] zIndex 0
par ZrpTestNetworkBig.visualizer.canvasVisualizer.networkConnectionVisualizer[0] typename "\"inet.visualizer.canvas.scene.NetworkConnectionCanvasVisualizer\""
par ZrpTestNetworkBig.visualizer.canvasVisualizer.networkConnectionVisualizer[0] visualizationTargetModule "\"^.^.^\""
par ZrpTestNetworkBig.visualizer.canvasVisualizer.networkConnectionVisualizer[0] visualizationSubjectModule "\"^.^.^\""
par ZrpTestNetworkBig.visualizer.canvasVisualizer.networkConnectionVisualizer[0] tags "\"\""
par ZrpTestNetworkBig.visualizer.canvasVisualizer.networkConnectionVisualizer[0] displayNetworkConnections true
par ZrpTestNetworkBig.visualizer.canvasVisualizer.networkConnectionVisualizer[0] nodeFilter "\"\""
attr mutable ""
par ZrpTestNetworkBig.visualizer.canvasVisualizer.networkConnectionVisualizer[0] lineColor "\"black\""
par ZrpTestNetworkBig.visualizer.canvasVisualizer.networkConnectionVisualizer[0] lineStyle "\"solid\""
par ZrpTestNetworkBig.visualizer.canvasVisualizer.networkConnectionVisualizer[0] lineWidth 1
par ZrpTestNetworkBig.visualizer.canvasVisualizer.networkConnectionVisualizer[0] zIndex 0
par ZrpTestNetworkBig.visualizer.canvasVisualizer.mobilityVisualizer[0] typename "\"inet.visualizer.canvas.mobility.MobilityCanvasVisualizer\""
par ZrpTestNetworkBig.visualizer.canvasVisualizer.mobilityVisualizer[0] visualizationTargetModule "\"^.^.^\""
par ZrpTestNetworkBig.visualizer.canvasVisualizer.mobilityVisualizer[0] visualizationSubjectModule "\"^.^.^\""
par ZrpTestNetworkBig.visualizer.canvasVisualizer.mobilityVisualizer[0] tags "\"\""
par ZrpTestNetworkBig.visualizer.canvasVisualizer.mobilityVisualizer[0] networkNodeVisualizerModule "\"ZrpTestNetworkBig.visualizer.canvasVisualizer.networkNodeVisualizer[0]\""
par ZrpTestNetworkBig.visualizer.canvasVisualizer.mobilityVisualizer[0] displayMobility true
par ZrpTestNetworkBig.visualizer.canvasVisualizer.mobilityVisualizer[0] animationSpeed 0
par ZrpTestNetworkBig.visualizer.canvasVisualizer.mobilityVisualizer[0] moduleFilter "\"**.mobility\""
attr mutable ""
par ZrpTestNetworkBig.visualizer.canvasVisualizer.mobilityVisualizer[0] displayPositions false
par ZrpTestNetworkBig.visualizer.canvasVisualizer.mobilityVisualizer[0] positionCircleRadius 4
par ZrpTestNetworkBig.visualizer.canvasVisualizer.mobilityVisualizer[0] positionCircleLineWidth 1
par ZrpTestNetworkBig.visualizer.canvasVisualizer.mobilityVisualizer[0] positionCircleLineColor "\"dark\""
par ZrpTestNetworkBig.visualizer.canvasVisualizer.mobilityVisualizer[0] positionCircleFillColor "\"dark\""
par ZrpTestNetworkBig.visualizer.canvasVisualizer.mobilityVisualizer[0] displayOrientations false
par ZrpTestNetworkBig.visualizer.canvasVisualizer.mobilityVisualizer[0] orientationPieRadius 32
par ZrpTestNetworkBig.visualizer.canvasVisualizer.mobilityVisualizer[0] orientationPieSize 0.2
par ZrpTestNetworkBig.visualizer.canvasVisualizer.mobilityVisualizer[0] orientationPieOpacity 0.25
par ZrpTestNetworkBig.visualizer.canvasVisualizer.mobilityVisualizer[0] orientationLineColor "\"black\""
par ZrpTestNetworkBig.visualizer.canvasVisualizer.mobilityVisualizer[0] orientationLineStyle "\"solid\""
par ZrpTestNetworkBig.visualizer.canvasVisualizer.mobilityVisualizer[0] orientationLineWidth 1
par ZrpTestNetworkBig.visualizer.canvasVisualizer.mobilityVisualizer[0] orientationFillColor "\"blue\""
par ZrpTestNetworkBig.visualizer.canvasVisualizer.mobilityVisualizer[0] displayVelocities false
par ZrpTestNetworkBig.visualizer.canvasVisualizer.mobilityVisualizer[0] velocityArrowScale 1
par ZrpTestNetworkBig.visualizer.canvasVisualizer.mobilityVisualizer[0] velocityLineColor "\"black\""
par ZrpTestNetworkBig.visualizer.canvasVisualizer.mobilityVisualizer[0] velocityLineStyle "\"solid\""
par ZrpTestNetworkBig.visualizer.canvasVisualizer.mobilityVisualizer[0] velocityLineWidth 1
par ZrpTestNetworkBig.visualizer.canvasVisualizer.mobilityVisualizer[0] displayMovementTrails false
par ZrpTestNetworkBig.visualizer.canvasVisualizer.mobilityVisualizer[0] movementTrailLineColor "\"dark\""
par ZrpTestNetworkBig.visualizer.canvasVisualizer.mobilityVisualizer[0] movementTrailLineStyle "\"solid\""
par ZrpTestNetworkBig.visualizer.canvasVisualizer.mobilityVisualizer[0] movementTrailLineWidth 1
par ZrpTestNetworkBig.visualizer.canvasVisualizer.mobilityVisualizer[0] trailLength 100
par ZrpTestNetworkBig.visualizer.canvasVisualizer.mobilityVisualizer[0] zIndex 0
par ZrpTestNetworkBig.visualizer.canvasVisualizer.statisticVisualizer[0] typename "\"inet.visualizer.canvas.common.StatisticCanvasVisualizer\""
par ZrpTestNetworkBig.visualizer.canvasVisualizer.statisticVisualizer[0] visualizationTargetModule "\"^.^.^\""
par ZrpTestNetworkBig.visualizer.canvasVisualizer.statisticVisualizer[0] visualizationSubjectModule "\"^.^.^\""
par ZrpTestNetworkBig.visualizer.canvasVisualizer.statisticVisualizer[0] tags "\"\""
par ZrpTestNetworkBig.visualizer.canvasVisualizer.statisticVisualizer[0] networkNodeVisualizerModule "\"ZrpTestNetworkBig.visualizer.canvasVisualizer.networkNodeVisualizer[0]\""
par ZrpTestNetworkBig.visualizer.canvasVisualizer.statisticVisualizer[0] displayStatistics true
par ZrpTestNetworkBig.visualizer.canvasVisualizer.statisticVisualizer[0] signalName "\"\""
par ZrpTestNetworkBig.visualizer.canvasVisualizer.statisticVisualizer[0] statisticName "\"\""
par ZrpTestNetworkBig.visualizer.canvasVisualizer.statisticVisualizer[0] statisticUnit "\"\""
par ZrpTestNetworkBig.visualizer.canvasVisualizer.statisticVisualizer[0] statisticExpression "\"\""
par ZrpTestNetworkBig.visualizer.canvasVisualizer.statisticVisualizer[0] sourceFilter "\"**\""
attr mutable ""
par ZrpTestNetworkBig.visualizer.canvasVisualizer.statisticVisualizer[0] format "\"%n: %v %u\""
attr mutable ""
par ZrpTestNetworkBig.visualizer.canvasVisualizer.statisticVisualizer[0] unit "\"\""
par ZrpTestNetworkBig.visualizer.canvasVisualizer.statisticVisualizer[0] font "\"<default>\""
par ZrpTestNetworkBig.visualizer.canvasVisualizer.statisticVisualizer[0] textColor "\"black\""
par ZrpTestNetworkBig.visualizer.canvasVisualizer.statisticVisualizer[0] backgroundColor "\"white\""
par ZrpTestNetworkBig.visualizer.canvasVisualizer.statisticVisualizer[0] opacity 1
par ZrpTestNetworkBig.visualizer.canvasVisualizer.statisticVisualizer[0] placementHint "\"top\""
par ZrpTestNetworkBig.visualizer.canvasVisualizer.statisticVisualizer[0] placementPriority 0
par ZrpTestNetworkBig.visualizer.canvasVisualizer.statisticVisualizer[0] zIndex 10
par ZrpTestNetworkBig.visualizer.canvasVisualizer.statisticVisualizer[0] propertyName "\"\""
par ZrpTestNetworkBig.visualizer.canvasVisualizer.statisticVisualizer[0] propertyIndex "\"\""
par ZrpTestNetworkBig.visualizer.canvasVisualizer.infoVisualizer[0] typename "\"inet.visualizer.canvas.common.InfoCanvasVisualizer\""
par ZrpTestNetworkBig.visualizer.canvasVisualizer.infoVisualizer[0] visualizationTargetModule "\"^.^.^\""
par ZrpTestNetworkBig.visualizer.canvasVisualizer.infoVisualizer[0] visualizationSubjectModule "\"^.^.^\""
par ZrpTestNetworkBig.visualizer.canvasVisualizer.infoVisualizer[0] tags "\"\""
par ZrpTestNetworkBig.visualizer.canvasVisualizer.infoVisualizer[0] networkNodeVisualizerModule "\"ZrpTestNetworkBig.visualizer.canvasVisualizer.networkNodeVisualizer[0]\""
par ZrpTestNetworkBig.visualizer.canvasVisualizer.infoVisualizer[0] displayInfos true
par ZrpTestNetworkBig.visualizer.canvasVisualizer.infoVisualizer[0] modules "\"*.*.app[0]\""
attr mutable ""
par ZrpTestNetworkBig.visualizer.canvasVisualizer.infoVisualizer[0] format "\"N:%p, Z:%t\""
attr mutable ""
par ZrpTestNetworkBig.visualizer.canvasVisualizer.infoVisualizer[0] font "\"<default>\""
par ZrpTestNetworkBig.visualizer.canvasVisualizer.infoVisualizer[0] textColor "\"black\""
par ZrpTestNetworkBig.visualizer.canvasVisualizer.infoVisualizer[0] backgroundColor "\"white\""
par ZrpTestNetworkBig.visualizer.canvasVisualizer.infoVisualizer[0] opacity 1
par ZrpTestNetworkBig.visualizer.canvasVisualizer.infoVisualizer[0] placementHint "\"top\""
par ZrpTestNetworkBig.visualizer.canvasVisualizer.infoVisualizer[0] placementPriority 0
par ZrpTestNetworkBig.visualizer.canvasVisualizer.infoVisualizer[0] zIndex 10
par ZrpTestNetworkBig.visualizer.canvasVisualizer.energyStorageVisualizer[0] typename "\"inet.visualizer.canvas.power.EnergyStorageCanvasVisualizer\""
par ZrpTestNetworkBig.visualizer.canvasVisualizer.energyStorageVisualizer[0] visualizationTargetModule "\"^.^.^\""
par ZrpTestNetworkBig.visualizer.canvasVisualizer.energyStorageVisualizer[0] visualizationSubjectModule "\"^.^.^\""
par ZrpTestNetworkBig.visualizer.canvasVisualizer.energyStorageVisualizer[0] tags "\"\""
par ZrpTestNetworkBig.visualizer.canvasVisualizer.energyStorageVisualizer[0] networkNodeVisualizerModule "\"ZrpTestNetworkBig.visualizer.canvasVisualizer.networkNodeVisualizer[0]\""
par ZrpTestNetworkBig.visualizer.canvasVisualizer.energyStorageVisualizer[0] displayEnergyStorages false
par ZrpTestNetworkBig.visualizer.canvasVisualizer.energyStorageVisualizer[0] energyStorageFilter "\"**\""
par ZrpTestNetworkBig.visualizer.canvasVisualizer.energyStorageVisualizer[0] color "\"green\""
par ZrpTestNetworkBig.visualizer.canvasVisualizer.energyStorageVisualizer[0] width 8
par ZrpTestNetworkBig.visualizer.canvasVisualizer.energyStorageVisualizer[0] height 24
par ZrpTestNetworkBig.visualizer.canvasVisualizer.energyStorageVisualizer[0] spacing 2
par ZrpTestNetworkBig.visualizer.canvasVisualizer.energyStorageVisualizer[0] placementHint "\"right\""
par ZrpTestNetworkBig.visualizer.canvasVisualizer.energyStorageVisualizer[0] placementPriority 0
par ZrpTestNetworkBig.visualizer.canvasVisualizer.energyStorageVisualizer[0] zIndex 10
par ZrpTestNetworkBig.visualizer.canvasVisualizer.mediumVisualizer[0] typename "\"inet.visualizer.canvas.physicallayer.MediumCanvasVisualizer\""
par ZrpTestNetworkBig.visualizer.canvasVisualizer.mediumVisualizer[0] visualizationTargetModule "\"^.^.^\""
par ZrpTestNetworkBig.visualizer.canvasVisualizer.mediumVisualizer[0] visualizationSubjectModule "\"^.^.^\""
par ZrpTestNetworkBig.visualizer.canvasVisualizer.mediumVisualizer[0] tags "\"\""
par ZrpTestNetworkBig.visualizer.canvasVisualizer.mediumVisualizer[0] mediumModule "\"radioMedium\""
par ZrpTestNetworkBig.visualizer.canvasVisualizer.mediumVisualizer[0] networkNodeVisualizerModule "\"ZrpTestNetworkBig.visualizer.canvasVisualizer.networkNodeVisualizer[0]\""
par ZrpTestNetworkBig.visualizer.canvasVisualizer.mediumVisualizer[0] nodeFilter "\"*\""
attr mutable ""
par ZrpTestNetworkBig.visualizer.canvasVisualizer.mediumVisualizer[0] interfaceFilter "\"*\""
attr mutable ""
par ZrpTestNetworkBig.visualizer.canvasVisualizer.mediumVisualizer[0] packetFilter "(omnetpp::cValueHolder)holder: \"*\""
attr mutable ""
par ZrpTestNetworkBig.visualizer.canvasVisualizer.mediumVisualizer[0] displaySignals true
par ZrpTestNetworkBig.visualizer.canvasVisualizer.mediumVisualizer[0] signalColor "\"dark\""
par ZrpTestNetworkBig.visualizer.canvasVisualizer.mediumVisualizer[0] signalPropagationAnimationSpeed 500
attr mutable ""
par ZrpTestNetworkBig.visualizer.canvasVisualizer.mediumVisualizer[0] signalPropagationAnimationTime 1s
attr unit s
par ZrpTestNetworkBig.visualizer.canvasVisualizer.mediumVisualizer[0] signalPropagationAdditionalTime 0s
attr unit s
par ZrpTestNetworkBig.visualizer.canvasVisualizer.mediumVisualizer[0] signalTransmissionAnimationSpeed "nan "
attr mutable ""
par ZrpTestNetworkBig.visualizer.canvasVisualizer.mediumVisualizer[0] signalTransmissionAnimationTime 1s
attr unit s
par ZrpTestNetworkBig.visualizer.canvasVisualizer.mediumVisualizer[0] signalAnimationSpeedChangeTimeMode "\"realTime\""
attr enum realTime,animationTime,simulationTime
par ZrpTestNetworkBig.visualizer.canvasVisualizer.mediumVisualizer[0] signalAnimationSpeedChangeTime 1s
attr unit s
par ZrpTestNetworkBig.visualizer.canvasVisualizer.mediumVisualizer[0] displaySignalDepartures false
par ZrpTestNetworkBig.visualizer.canvasVisualizer.mediumVisualizer[0] signalDepartureImage "\"misc/signal_departure.png\""
par ZrpTestNetworkBig.visualizer.canvasVisualizer.mediumVisualizer[0] signalDeparturePlacementHint "\"topCenter\""
par ZrpTestNetworkBig.visualizer.canvasVisualizer.mediumVisualizer[0] signalDeparturePlacementPriority 1
par ZrpTestNetworkBig.visualizer.canvasVisualizer.mediumVisualizer[0] displaySignalArrivals false
par ZrpTestNetworkBig.visualizer.canvasVisualizer.mediumVisualizer[0] signalArrivalImage "\"misc/signal_arrival.png\""
par ZrpTestNetworkBig.visualizer.canvasVisualizer.mediumVisualizer[0] signalArrivalPlacementHint "\"topCenter\""
par ZrpTestNetworkBig.visualizer.canvasVisualizer.mediumVisualizer[0] signalArrivalPlacementPriority -1
par ZrpTestNetworkBig.visualizer.canvasVisualizer.mediumVisualizer[0] displayCommunicationRanges true
par ZrpTestNetworkBig.visualizer.canvasVisualizer.mediumVisualizer[0] communicationRangeLineColor "\"blue\""
par ZrpTestNetworkBig.visualizer.canvasVisualizer.mediumVisualizer[0] communicationRangeLineStyle "\"solid\""
par ZrpTestNetworkBig.visualizer.canvasVisualizer.mediumVisualizer[0] communicationRangeLineWidth 1
par ZrpTestNetworkBig.visualizer.canvasVisualizer.mediumVisualizer[0] displayInterferenceRanges false
par ZrpTestNetworkBig.visualizer.canvasVisualizer.mediumVisualizer[0] interferenceRangeLineColor "\"gray\""
par ZrpTestNetworkBig.visualizer.canvasVisualizer.mediumVisualizer[0] interferenceRangeLineStyle "\"solid\""
par ZrpTestNetworkBig.visualizer.canvasVisualizer.mediumVisualizer[0] interferenceRangeLineWidth 1
par ZrpTestNetworkBig.visualizer.canvasVisualizer.mediumVisualizer[0] autoPowerAxis true
par ZrpTestNetworkBig.visualizer.canvasVisualizer.mediumVisualizer[0] signalMinPower "inf dBmW"
attr unit dBmW
par ZrpTestNetworkBig.visualizer.canvasVisualizer.mediumVisualizer[0] signalMaxPower 0dBmW
attr unit dBmW
par ZrpTestNetworkBig.visualizer.canvasVisualizer.mediumVisualizer[0] signalMinPowerDensity "inf dBmWpMHz"
attr unit dBmWpMHz
par ZrpTestNetworkBig.visualizer.canvasVisualizer.mediumVisualizer[0] signalMaxPowerDensity "-inf dBmWpMHz"
attr unit dBmWpMHz
par ZrpTestNetworkBig.visualizer.canvasVisualizer.mediumVisualizer[0] autoTimeAxis true
par ZrpTestNetworkBig.visualizer.canvasVisualizer.mediumVisualizer[0] signalMinTime 0s
attr unit s
par ZrpTestNetworkBig.visualizer.canvasVisualizer.mediumVisualizer[0] signalMaxTime 0s
attr unit s
par ZrpTestNetworkBig.visualizer.canvasVisualizer.mediumVisualizer[0] autoFrequencyAxis true
par ZrpTestNetworkBig.visualizer.canvasVisualizer.mediumVisualizer[0] signalMinFrequency "inf Hz"
attr unit Hz
par ZrpTestNetworkBig.visualizer.canvasVisualizer.mediumVisualizer[0] signalMaxFrequency "-inf Hz"
attr unit Hz
par ZrpTestNetworkBig.visualizer.canvasVisualizer.mediumVisualizer[0] displayMainPowerDensityMap false
par ZrpTestNetworkBig.visualizer.canvasVisualizer.mediumVisualizer[0] mainPowerDensityMapPixmapDensity 1
par ZrpTestNetworkBig.visualizer.canvasVisualizer.mediumVisualizer[0] mainPowerDensityMapMinX 0
par ZrpTestNetworkBig.visualizer.canvasVisualizer.mediumVisualizer[0] mainPowerDensityMapMaxX "nan "
par ZrpTestNetworkBig.visualizer.canvasVisualizer.mediumVisualizer[0] mainPowerDensityMapMinY 0
par ZrpTestNetworkBig.visualizer.canvasVisualizer.mediumVisualizer[0] mainPowerDensityMapMaxY "nan "
par ZrpTestNetworkBig.visualizer.canvasVisualizer.mediumVisualizer[0] mainPowerDensityMapZ 0
par ZrpTestNetworkBig.visualizer.canvasVisualizer.mediumVisualizer[0] mainPowerDensityMapFigureXTickCount 3
par ZrpTestNetworkBig.visualizer.canvasVisualizer.mediumVisualizer[0] mainPowerDensityMapFigureYTickCount 3
par ZrpTestNetworkBig.visualizer.canvasVisualizer.mediumVisualizer[0] displayPowerDensityMaps false
par ZrpTestNetworkBig.visualizer.canvasVisualizer.mediumVisualizer[0] powerDensityMapMode "\"auto\""
attr enum total,signal,auto
par ZrpTestNetworkBig.visualizer.canvasVisualizer.mediumVisualizer[0] powerDensityMapPixelMode "\"mean\""
attr enum sample,partition,mean
par ZrpTestNetworkBig.visualizer.canvasVisualizer.mediumVisualizer[0] powerDensityMapApproximationSize 10
par ZrpTestNetworkBig.visualizer.canvasVisualizer.mediumVisualizer[0] powerDensityMapCenterFrequency "nan Hz"
attr mutable ""
attr unit Hz
par ZrpTestNetworkBig.visualizer.canvasVisualizer.mediumVisualizer[0] powerDensityMapBandwidth 0Hz
attr mutable ""
attr unit Hz
par ZrpTestNetworkBig.visualizer.canvasVisualizer.mediumVisualizer[0] powerDensityMapFigureWidth 200
par ZrpTestNetworkBig.visualizer.canvasVisualizer.mediumVisualizer[0] powerDensityMapFigureHeight 120
par ZrpTestNetworkBig.visualizer.canvasVisualizer.mediumVisualizer[0] powerDensityMapPixmapWidth 200
par ZrpTestNetworkBig.visualizer.canvasVisualizer.mediumVisualizer[0] powerDensityMapPixmapHeight 120
par ZrpTestNetworkBig.visualizer.canvasVisualizer.mediumVisualizer[0] powerDensityMapZ 0
par ZrpTestNetworkBig.visualizer.canvasVisualizer.mediumVisualizer[0] powerDensityMapFigureXTickCount 3
par ZrpTestNetworkBig.visualizer.canvasVisualizer.mediumVisualizer[0] powerDensityMapFigureYTickCount 3
par ZrpTestNetworkBig.visualizer.canvasVisualizer.mediumVisualizer[0] displaySpectrums false
par ZrpTestNetworkBig.visualizer.canvasVisualizer.mediumVisualizer[0] spectrumMode "\"auto\""
attr enum total,signal,auto
par ZrpTestNetworkBig.visualizer.canvasVisualizer.mediumVisualizer[0] spectrumFigureWidth 200
par ZrpTestNetworkBig.visualizer.canvasVisualizer.mediumVisualizer[0] spectrumFigureHeight 120
par ZrpTestNetworkBig.visualizer.canvasVisualizer.mediumVisualizer[0] spectrumFigureXTickCount 3
par ZrpTestNetworkBig.visualizer.canvasVisualizer.mediumVisualizer[0] spectrumFigureYTickCount 5
par ZrpTestNetworkBig.visualizer.canvasVisualizer.mediumVisualizer[0] spectrumFigureInterpolationSize 5
par ZrpTestNetworkBig.visualizer.canvasVisualizer.mediumVisualizer[0] spectrumPlacementHint "\"bottomCenter\""
par ZrpTestNetworkBig.visualizer.canvasVisualizer.mediumVisualizer[0] spectrumPlacementPriority -1
par ZrpTestNetworkBig.visualizer.canvasVisualizer.mediumVisualizer[0] displaySpectrograms false
par ZrpTestNetworkBig.visualizer.canvasVisualizer.mediumVisualizer[0] spectrogramMode "\"auto\""
attr enum total,signal,auto
par ZrpTestNetworkBig.visualizer.canvasVisualizer.mediumVisualizer[0] spectrogramPixelMode "\"mean\""
attr enum sample,partition,mean
par ZrpTestNetworkBig.visualizer.canvasVisualizer.mediumVisualizer[0] spectrogramFigureWidth 200
par ZrpTestNetworkBig.visualizer.canvasVisualizer.mediumVisualizer[0] spectrogramFigureHeight 120
par ZrpTestNetworkBig.visualizer.canvasVisualizer.mediumVisualizer[0] spectrogramPixmapWidth 200
par ZrpTestNetworkBig.visualizer.canvasVisualizer.mediumVisualizer[0] spectrogramPixmapHeight 120
par ZrpTestNetworkBig.visualizer.canvasVisualizer.mediumVisualizer[0] spectrogramFigureXTickCount 3
par ZrpTestNetworkBig.visualizer.canvasVisualizer.mediumVisualizer[0] spectrogramFigureYTickCount 5
par ZrpTestNetworkBig.visualizer.canvasVisualizer.mediumVisualizer[0] spectrogramPlacementHint "\"bottomCenter\""
par ZrpTestNetworkBig.visualizer.canvasVisualizer.mediumVisualizer[0] spectrogramPlacementPriority -1
par ZrpTestNetworkBig.visualizer.canvasVisualizer.mediumVisualizer[0] zIndex 0
par ZrpTestNetworkBig.visualizer.canvasVisualizer.mediumVisualizer[0] signalShape "\"ring\""
attr enum ring,sphere
par ZrpTestNetworkBig.visualizer.canvasVisualizer.mediumVisualizer[0] signalOpacity 0.5
par ZrpTestNetworkBig.visualizer.canvasVisualizer.mediumVisualizer[0] signalRingCount 20
par ZrpTestNetworkBig.visualizer.canvasVisualizer.mediumVisualizer[0] signalRingSize 50m
attr unit m
par ZrpTestNetworkBig.visualizer.canvasVisualizer.mediumVisualizer[0] signalFadingDistance 50m
attr unit m
par ZrpTestNetworkBig.visualizer.canvasVisualizer.mediumVisualizer[0] signalFadingFactor 1.2
par ZrpTestNetworkBig.visualizer.canvasVisualizer.mediumVisualizer[0] signalWaveCount 20
par ZrpTestNetworkBig.visualizer.canvasVisualizer.mediumVisualizer[0] signalWaveLength 50m
attr unit m
par ZrpTestNetworkBig.visualizer.canvasVisualizer.mediumVisualizer[0] signalWaveWidth 10m
attr unit m
par ZrpTestNetworkBig.visualizer.canvasVisualizer.mediumVisualizer[0] signalWaveFadingAnimationSpeedFactor 1
par ZrpTestNetworkBig.visualizer.canvasVisualizer.mediumVisualizer[0] displayCommunicationHeat false
par ZrpTestNetworkBig.visualizer.canvasVisualizer.obstacleLossVisualizer[0] typename "\"inet.visualizer.canvas.physicallayer.TracingObstacleLossCanvasVisualizer\""
par ZrpTestNetworkBig.visualizer.canvasVisualizer.obstacleLossVisualizer[0] visualizationTargetModule "\"^.^.^\""
par ZrpTestNetworkBig.visualizer.canvasVisualizer.obstacleLossVisualizer[0] visualizationSubjectModule "\"^.^.^\""
par ZrpTestNetworkBig.visualizer.canvasVisualizer.obstacleLossVisualizer[0] tags "\"\""
par ZrpTestNetworkBig.visualizer.canvasVisualizer.obstacleLossVisualizer[0] displayIntersections false
par ZrpTestNetworkBig.visualizer.canvasVisualizer.obstacleLossVisualizer[0] intersectionLineColor "\"red\""
par ZrpTestNetworkBig.visualizer.canvasVisualizer.obstacleLossVisualizer[0] intersectionLineStyle "\"solid\""
par ZrpTestNetworkBig.visualizer.canvasVisualizer.obstacleLossVisualizer[0] intersectionLineWidth 1
par ZrpTestNetworkBig.visualizer.canvasVisualizer.obstacleLossVisualizer[0] displayFaceNormalVectors false
par ZrpTestNetworkBig.visualizer.canvasVisualizer.obstacleLossVisualizer[0] faceNormalLineColor "\"grey\""
par ZrpTestNetworkBig.visualizer.canvasVisualizer.obstacleLossVisualizer[0] faceNormalLineStyle "\"solid\""
par ZrpTestNetworkBig.visualizer.canvasVisualizer.obstacleLossVisualizer[0] faceNormalLineWidth 1
par ZrpTestNetworkBig.visualizer.canvasVisualizer.obstacleLossVisualizer[0] fadeOutMode "\"realTime\""
attr enum realTime,animationTime,simulationTime
par ZrpTestNetworkBig.visualizer.canvasVisualizer.obstacleLossVisualizer[0] fadeOutTime 1s
attr unit s
par ZrpTestNetworkBig.visualizer.canvasVisualizer.obstacleLossVisualizer[0] fadeOutAnimationSpeed 0
par ZrpTestNetworkBig.visualizer.canvasVisualizer.obstacleLossVisualizer[0] zIndex 0
par ZrpTestNetworkBig.visualizer.canvasVisualizer.packetDropVisualizer[0] typename "\"inet.visualizer.canvas.common.PacketDropCanvasVisualizer\""
par ZrpTestNetworkBig.visualizer.canvasVisualizer.packetDropVisualizer[0] visualizationTargetModule "\"^.^.^\""
par ZrpTestNetworkBig.visualizer.canvasVisualizer.packetDropVisualizer[0] visualizationSubjectModule "\"^.^.^\""
par ZrpTestNetworkBig.visualizer.canvasVisualizer.packetDropVisualizer[0] tags "\"\""
par ZrpTestNetworkBig.visualizer.canvasVisualizer.packetDropVisualizer[0] displayPacketDrops false
par ZrpTestNetworkBig.visualizer.canvasVisualizer.packetDropVisualizer[0] nodeFilter "\"*\""
attr mutable ""
par ZrpTestNetworkBig.visualizer.canvasVisualizer.packetDropVisualizer[0] interfaceFilter "\"*\""
attr mutable ""
par ZrpTestNetworkBig.visualizer.canvasVisualizer.packetDropVisualizer[0] packetFilter "(omnetpp::cValueHolder)holder: \"*\""
attr mutable ""
par ZrpTestNetworkBig.visualizer.canvasVisualizer.packetDropVisualizer[0] detailsFilter "\"*\""
attr mutable ""
par ZrpTestNetworkBig.visualizer.canvasVisualizer.packetDropVisualizer[0] icon "\"msg/packet_s\""
par ZrpTestNetworkBig.visualizer.canvasVisualizer.packetDropVisualizer[0] iconTintAmount 1
par ZrpTestNetworkBig.visualizer.canvasVisualizer.packetDropVisualizer[0] iconTintColor "\"dark\""
par ZrpTestNetworkBig.visualizer.canvasVisualizer.packetDropVisualizer[0] labelFormat "\"%n\""
attr mutable ""
par ZrpTestNetworkBig.visualizer.canvasVisualizer.packetDropVisualizer[0] labelFont "\"<default>\""
par ZrpTestNetworkBig.visualizer.canvasVisualizer.packetDropVisualizer[0] labelColor "\"black\""
par ZrpTestNetworkBig.visualizer.canvasVisualizer.packetDropVisualizer[0] fadeOutMode "\"realTime\""
attr enum realTime,animationTime,simulationTime
par ZrpTestNetworkBig.visualizer.canvasVisualizer.packetDropVisualizer[0] fadeOutTime 1s
attr unit s
par ZrpTestNetworkBig.visualizer.canvasVisualizer.packetDropVisualizer[0] fadeOutAnimationSpeed 0
par ZrpTestNetworkBig.visualizer.canvasVisualizer.packetDropVisualizer[0] zIndex 10
par ZrpTestNetworkBig.visualizer.canvasVisualizer.packetDropVisualizer[0] dx 32
par ZrpTestNetworkBig.visualizer.canvasVisualizer.packetDropVisualizer[0] dy 64
par ZrpTestNetworkBig.visualizer.canvasVisualizer.queueVisualizer[0] typename "\"inet.visualizer.canvas.common.QueueCanvasVisualizer\""
par ZrpTestNetworkBig.visualizer.canvasVisualizer.queueVisualizer[0] visualizationTargetModule "\"^.^.^\""
par ZrpTestNetworkBig.visualizer.canvasVisualizer.queueVisualizer[0] visualizationSubjectModule "\"^.^.^\""
par ZrpTestNetworkBig.visualizer.canvasVisualizer.queueVisualizer[0] tags "\"\""
par ZrpTestNetworkBig.visualizer.canvasVisualizer.queueVisualizer[0] networkNodeVisualizerModule "\"ZrpTestNetworkBig.visualizer.canvasVisualizer.networkNodeVisualizer[0]\""
par ZrpTestNetworkBig.visualizer.canvasVisualizer.queueVisualizer[0] displayQueues false
par ZrpTestNetworkBig.visualizer.canvasVisualizer.queueVisualizer[0] queueFilter "\"**\""
par ZrpTestNetworkBig.visualizer.canvasVisualizer.queueVisualizer[0] color "\"blue\""
par ZrpTestNetworkBig.visualizer.canvasVisualizer.queueVisualizer[0] width 8
par ZrpTestNetworkBig.visualizer.canvasVisualizer.queueVisualizer[0] height 24
par ZrpTestNetworkBig.visualizer.canvasVisualizer.queueVisualizer[0] spacing 2
par ZrpTestNetworkBig.visualizer.canvasVisualizer.queueVisualizer[0] placementHint "\"right\""
par ZrpTestNetworkBig.visualizer.canvasVisualizer.queueVisualizer[0] placementPriority 0
par ZrpTestNetworkBig.visualizer.canvasVisualizer.queueVisualizer[0] zIndex 10
par ZrpTestNetworkBig.visualizer.canvasVisualizer.gateScheduleVisualizer[0] typename "\"inet.visualizer.canvas.common.GateScheduleCanvasVisualizer\""
par ZrpTestNetworkBig.visualizer.canvasVisualizer.gateScheduleVisualizer[0] visualizationTargetModule "\"^.^.^\""
par ZrpTestNetworkBig.visualizer.canvasVisualizer.gateScheduleVisualizer[0] visualizationSubjectModule "\"^.^.^\""
par ZrpTestNetworkBig.visualizer.canvasVisualizer.gateScheduleVisualizer[0] tags "\"\""
par ZrpTestNetworkBig.visualizer.canvasVisualizer.gateScheduleVisualizer[0] networkNodeVisualizerModule "\"ZrpTestNetworkBig.visualizer.canvasVisualizer.networkNodeVisualizer[0]\""
par ZrpTestNetworkBig.visualizer.canvasVisualizer.gateScheduleVisualizer[0] displayGateSchedules false
par ZrpTestNetworkBig.visualizer.canvasVisualizer.gateScheduleVisualizer[0] labelFormat "\"%i %D\""
par ZrpTestNetworkBig.visualizer.canvasVisualizer.gateScheduleVisualizer[0] gateFilter "\"**\""
par ZrpTestNetworkBig.visualizer.canvasVisualizer.gateScheduleVisualizer[0] width 100
par ZrpTestNetworkBig.visualizer.canvasVisualizer.gateScheduleVisualizer[0] height 8
par ZrpTestNetworkBig.visualizer.canvasVisualizer.gateScheduleVisualizer[0] spacing 2
par ZrpTestNetworkBig.visualizer.canvasVisualizer.gateScheduleVisualizer[0] placementHint "\"right\""
par ZrpTestNetworkBig.visualizer.canvasVisualizer.gateScheduleVisualizer[0] placementPriority 0
par ZrpTestNetworkBig.visualizer.canvasVisualizer.gateScheduleVisualizer[0] displayDuration 0s
attr mutable ""
attr unit s
par ZrpTestNetworkBig.visualizer.canvasVisualizer.gateScheduleVisualizer[0] currentTimePosition 50
par ZrpTestNetworkBig.visualizer.canvasVisualizer.gateScheduleVisualizer[0] zIndex 10
par ZrpTestNetworkBig.visualizer.canvasVisualizer.radioVisualizer[0] typename "\"inet.visualizer.canvas.physicallayer.RadioCanvasVisualizer\""
par ZrpTestNetworkBig.visualizer.canvasVisualizer.radioVisualizer[0] visualizationTargetModule "\"^.^.^\""
par ZrpTestNetworkBig.visualizer.canvasVisualizer.radioVisualizer[0] visualizationSubjectModule "\"^.^.^\""
par ZrpTestNetworkBig.visualizer.canvasVisualizer.radioVisualizer[0] tags "\"\""
par ZrpTestNetworkBig.visualizer.canvasVisualizer.radioVisualizer[0] networkNodeVisualizerModule "\"ZrpTestNetworkBig.visualizer.canvasVisualizer.networkNodeVisualizer[0]\""
par ZrpTestNetworkBig.visualizer.canvasVisualizer.radioVisualizer[0] displayRadios false
par ZrpTestNetworkBig.visualizer.canvasVisualizer.radioVisualizer[0] displayRadioMode true
par ZrpTestNetworkBig.visualizer.canvasVisualizer.radioVisualizer[0] displayReceptionState true
par ZrpTestNetworkBig.visualizer.canvasVisualizer.radioVisualizer[0] displayTransmissionState true
par ZrpTestNetworkBig.visualizer.canvasVisualizer.radioVisualizer[0] displayAntennaLobes false
par ZrpTestNetworkBig.visualizer.canvasVisualizer.radioVisualizer[0] radioFilter "\"**\""
attr mutable ""
par ZrpTestNetworkBig.visualizer.canvasVisualizer.radioVisualizer[0] radioModeImages "\"block/process_vs block/timer_vs block/wrx_vs block/wtx_vs block/wrxtx_vs block/cogwheel_vs\""
par ZrpTestNetworkBig.visualizer.canvasVisualizer.radioVisualizer[0] receptionStateImages "\"- - misc/receiving misc/receiving\""
par ZrpTestNetworkBig.visualizer.canvasVisualizer.radioVisualizer[0] transmissionStateImages "\"- - misc/transmitting\""
par ZrpTestNetworkBig.visualizer.canvasVisualizer.radioVisualizer[0] width 16
par ZrpTestNetworkBig.visualizer.canvasVisualizer.radioVisualizer[0] height 16
par ZrpTestNetworkBig.visualizer.canvasVisualizer.radioVisualizer[0] placementHint "\"bottomRight\""
par ZrpTestNetworkBig.visualizer.canvasVisualizer.radioVisualizer[0] placementPriority 0
par ZrpTestNetworkBig.visualizer.canvasVisualizer.radioVisualizer[0] antennaLobeNormalize false
par ZrpTestNetworkBig.visualizer.canvasVisualizer.radioVisualizer[0] antennaLobeRelativeLabels false
par ZrpTestNetworkBig.visualizer.canvasVisualizer.radioVisualizer[0] antennaLobePlaneGlobal true
par ZrpTestNetworkBig.visualizer.canvasVisualizer.radioVisualizer[0] antennaLobePlane "\"view\""
attr enum view,xy,xz,yz
par ZrpTestNetworkBig.visualizer.canvasVisualizer.radioVisualizer[0] antennaLobeMode "\"logarithmic\""
attr enum logarithmic,linear
par ZrpTestNetworkBig.visualizer.canvasVisualizer.radioVisualizer[0] antennaLobeLogarithmicBase 10
par ZrpTestNetworkBig.visualizer.canvasVisualizer.radioVisualizer[0] antennaLobeLogarithmicScale 100
par ZrpTestNetworkBig.visualizer.canvasVisualizer.radioVisualizer[0] antennaLobeRadius 100
par ZrpTestNetworkBig.visualizer.canvasVisualizer.radioVisualizer[0] antennaLobeStep 10deg
attr unit deg
par ZrpTestNetworkBig.visualizer.canvasVisualizer.radioVisualizer[0] antennaLobeOpacity 0.25
par ZrpTestNetworkBig.visualizer.canvasVisualizer.radioVisualizer[0] antennaLobeLineSmooth true
par ZrpTestNetworkBig.visualizer.canvasVisualizer.radioVisualizer[0] antennaLobeLineColor "\"black\""
par ZrpTestNetworkBig.visualizer.canvasVisualizer.radioVisualizer[0] antennaLobeLineStyle "\"solid\""
par ZrpTestNetworkBig.visualizer.canvasVisualizer.radioVisualizer[0] antennaLobeLineWidth 1
par ZrpTestNetworkBig.visualizer.canvasVisualizer.radioVisualizer[0] antennaLobeFillColor "\"white\""
par ZrpTestNetworkBig.visualizer.canvasVisualizer.radioVisualizer[0] zIndex 10
par ZrpTestNetworkBig.visualizer.canvasVisualizer.physicalLinkVisualizer[0] typename "\"inet.visualizer.canvas.physicallayer.PhysicalLinkCanvasVisualizer\""
par ZrpTestNetworkBig.visualizer.canvasVisualizer.physicalLinkVisualizer[0] visualizationTargetModule "\"^.^.^\""
par ZrpTestNetworkBig.visualizer.canvasVisualizer.physicalLinkVisualizer[0] visualizationSubjectModule "\"^.^.^\""
par ZrpTestNetworkBig.visualizer.canvasVisualizer.physicalLinkVisualizer[0] tags "\"\""
par ZrpTestNetworkBig.visualizer.canvasVisualizer.physicalLinkVisualizer[0] displayLinks false
par ZrpTestNetworkBig.visualizer.canvasVisualizer.physicalLinkVisualizer[0] activityLevel "\"service\""
attr enum service,peer,protocol
par ZrpTestNetworkBig.visualizer.canvasVisualizer.physicalLinkVisualizer[0] nodeFilter "\"*\""
attr mutable ""
par ZrpTestNetworkBig.visualizer.canvasVisualizer.physicalLinkVisualizer[0] interfaceFilter "\"*\""
attr mutable ""
par ZrpTestNetworkBig.visualizer.canvasVisualizer.physicalLinkVisualizer[0] packetFilter "(omnetpp::cValueHolder)holder: \"*\""
attr mutable ""
par ZrpTestNetworkBig.visualizer.canvasVisualizer.physicalLinkVisualizer[0] lineColor "\"olive\""
par ZrpTestNetworkBig.visualizer.canvasVisualizer.physicalLinkVisualizer[0] lineStyle "\"dotted\""
par ZrpTestNetworkBig.visualizer.canvasVisualizer.physicalLinkVisualizer[0] lineWidth 3
par ZrpTestNetworkBig.visualizer.canvasVisualizer.physicalLinkVisualizer[0] lineShift 16
par ZrpTestNetworkBig.visualizer.canvasVisualizer.physicalLinkVisualizer[0] lineShiftMode "\"normal\""
par ZrpTestNetworkBig.visualizer.canvasVisualizer.physicalLinkVisualizer[0] lineContactSpacing 3
par ZrpTestNetworkBig.visualizer.canvasVisualizer.physicalLinkVisualizer[0] lineContactMode "\"rectangular\""
attr enum circular,rectangular
par ZrpTestNetworkBig.visualizer.canvasVisualizer.physicalLinkVisualizer[0] labelFormat "\"%n\""
par ZrpTestNetworkBig.visualizer.canvasVisualizer.physicalLinkVisualizer[0] labelFont "\"<default>, 8px\""
par ZrpTestNetworkBig.visualizer.canvasVisualizer.physicalLinkVisualizer[0] labelColor "\"olive\""
par ZrpTestNetworkBig.visualizer.canvasVisualizer.physicalLinkVisualizer[0] fadeOutMode "\"realTime\""
attr enum realTime,animationTime,simulationTime
par ZrpTestNetworkBig.visualizer.canvasVisualizer.physicalLinkVisualizer[0] fadeOutTime 1s
attr unit s
par ZrpTestNetworkBig.visualizer.canvasVisualizer.physicalLinkVisualizer[0] fadeOutAnimationSpeed 0
par ZrpTestNetworkBig.visualizer.canvasVisualizer.physicalLinkVisualizer[0] holdAnimationTime 0s
attr unit s
par ZrpTestNetworkBig.visualizer.canvasVisualizer.physicalLinkVisualizer[0] zIndex 1
par ZrpTestNetworkBig.visualizer.canvasVisualizer.interfaceTableVisualizer[0] typename "\"inet.visualizer.canvas.linklayer.InterfaceTableCanvasVisualizer\""
par ZrpTestNetworkBig.visualizer.canvasVisualizer.interfaceTableVisualizer[0] visualizationTargetModule "\"^.^.^\""
par ZrpTestNetworkBig.visualizer.canvasVisualizer.interfaceTableVisualizer[0] visualizationSubjectModule "\"^.^.^\""
par ZrpTestNetworkBig.visualizer.canvasVisualizer.interfaceTableVisualizer[0] tags "\"\""
par ZrpTestNetworkBig.visualizer.canvasVisualizer.interfaceTableVisualizer[0] networkNodeVisualizerModule "\"ZrpTestNetworkBig.visualizer.canvasVisualizer.networkNodeVisualizer[0]\""
par ZrpTestNetworkBig.visualizer.canvasVisualizer.interfaceTableVisualizer[0] displayInterfaceTables true
par ZrpTestNetworkBig.visualizer.canvasVisualizer.interfaceTableVisualizer[0] displayWiredInterfacesAtConnections true
par ZrpTestNetworkBig.visualizer.canvasVisualizer.interfaceTableVisualizer[0] displayBackground false
par ZrpTestNetworkBig.visualizer.canvasVisualizer.interfaceTableVisualizer[0] nodeFilter "\"*\""
attr mutable ""
par ZrpTestNetworkBig.visualizer.canvasVisualizer.interfaceTableVisualizer[0] interfaceFilter "\"not(lo*)\""
attr mutable ""
par ZrpTestNetworkBig.visualizer.canvasVisualizer.interfaceTableVisualizer[0] format "\"%a/%l\""
attr mutable ""
par ZrpTestNetworkBig.visualizer.canvasVisualizer.interfaceTableVisualizer[0] placementHint "\"top\""
par ZrpTestNetworkBig.visualizer.canvasVisualizer.interfaceTableVisualizer[0] placementPriority 0
par ZrpTestNetworkBig.visualizer.canvasVisualizer.interfaceTableVisualizer[0] font "\"<default>\""
par ZrpTestNetworkBig.visualizer.canvasVisualizer.interfaceTableVisualizer[0] textColor "\"#005030\""
par ZrpTestNetworkBig.visualizer.canvasVisualizer.interfaceTableVisualizer[0] backgroundColor "\"white\""
par ZrpTestNetworkBig.visualizer.canvasVisualizer.interfaceTableVisualizer[0] opacity 1
par ZrpTestNetworkBig.visualizer.canvasVisualizer.interfaceTableVisualizer[0] zIndex 10
par ZrpTestNetworkBig.visualizer.canvasVisualizer.dataLinkVisualizer[0] typename "\"inet.visualizer.canvas.linklayer.DataLinkCanvasVisualizer\""
par ZrpTestNetworkBig.visualizer.canvasVisualizer.dataLinkVisualizer[0] visualizationTargetModule "\"^.^.^\""
par ZrpTestNetworkBig.visualizer.canvasVisualizer.dataLinkVisualizer[0] visualizationSubjectModule "\"^.^.^\""
par ZrpTestNetworkBig.visualizer.canvasVisualizer.dataLinkVisualizer[0] tags "\"\""
par ZrpTestNetworkBig.visualizer.canvasVisualizer.dataLinkVisualizer[0] displayLinks true
par ZrpTestNetworkBig.visualizer.canvasVisualizer.dataLinkVisualizer[0] activityLevel "\"peer\""
attr enum service,peer,protocol
par ZrpTestNetworkBig.visualizer.canvasVisualizer.dataLinkVisualizer[0] nodeFilter "\"*\""
attr mutable ""
par ZrpTestNetworkBig.visualizer.canvasVisualizer.dataLinkVisualizer[0] interfaceFilter "\"*\""
attr mutable ""
par ZrpTestNetworkBig.visualizer.canvasVisualizer.dataLinkVisualizer[0] packetFilter "(omnetpp::cValueHolder)holder: \"NDP_Hello\""
attr mutable ""
par ZrpTestNetworkBig.visualizer.canvasVisualizer.dataLinkVisualizer[0] lineColor "\"green\""
par ZrpTestNetworkBig.visualizer.canvasVisualizer.dataLinkVisualizer[0] lineStyle "\"solid\""
par ZrpTestNetworkBig.visualizer.canvasVisualizer.dataLinkVisualizer[0] lineWidth 3
par ZrpTestNetworkBig.visualizer.canvasVisualizer.dataLinkVisualizer[0] lineShift 16
par ZrpTestNetworkBig.visualizer.canvasVisualizer.dataLinkVisualizer[0] lineShiftMode "\"normal\""
par ZrpTestNetworkBig.visualizer.canvasVisualizer.dataLinkVisualizer[0] lineContactSpacing 3
par ZrpTestNetworkBig.visualizer.canvasVisualizer.dataLinkVisualizer[0] lineContactMode "\"rectangular\""
attr enum circular,rectangular
par ZrpTestNetworkBig.visualizer.canvasVisualizer.dataLinkVisualizer[0] labelFormat "\"%n\""
par ZrpTestNetworkBig.visualizer.canvasVisualizer.dataLinkVisualizer[0] labelFont "\"<default>, 8px\""
par ZrpTestNetworkBig.visualizer.canvasVisualizer.dataLinkVisualizer[0] labelColor "\"green\""
par ZrpTestNetworkBig.visualizer.canvasVisualizer.dataLinkVisualizer[0] fadeOutMode "\"realTime\""
attr enum realTime,animationTime,simulationTime
par ZrpTestNetworkBig.visualizer.canvasVisualizer.dataLinkVisualizer[0] fadeOutTime 1s
attr unit s
par ZrpTestNetworkBig.visualizer.canvasVisualizer.dataLinkVisualizer[0] fadeOutAnimationSpeed 0
par ZrpTestNetworkBig.visualizer.canvasVisualizer.dataLinkVisualizer[0] holdAnimationTime 0s
attr unit s
par ZrpTestNetworkBig.visualizer.canvasVisualizer.dataLinkVisualizer[0] zIndex 2
par ZrpTestNetworkBig.visualizer.canvasVisualizer.dataLinkVisualizer[1] typename "\"inet.visualizer.canvas.linklayer.DataLinkCanvasVisualizer\""
par ZrpTestNetworkBig.visualizer.canvasVisualizer.dataLinkVisualizer[1] visualizationTargetModule "\"^.^.^\""
par ZrpTestNetworkBig.visualizer.canvasVisualizer.dataLinkVisualizer[1] visualizationSubjectModule "\"^.^.^\""
par ZrpTestNetworkBig.visualizer.canvasVisualizer.dataLinkVisualizer[1] tags "\"\""
par ZrpTestNetworkBig.visualizer.canvasVisualizer.dataLinkVisualizer[1] displayLinks true
par ZrpTestNetworkBig.visualizer.canvasVisualizer.dataLinkVisualizer[1] activityLevel "\"peer\""
attr enum service,peer,protocol
par ZrpTestNetworkBig.visualizer.canvasVisualizer.dataLinkVisualizer[1] nodeFilter "\"*\""
attr mutable ""
par ZrpTestNetworkBig.visualizer.canvasVisualizer.dataLinkVisualizer[1] interfaceFilter "\"*\""
attr mutable ""
par ZrpTestNetworkBig.visualizer.canvasVisualizer.dataLinkVisualizer[1] packetFilter "(omnetpp::cValueHolder)holder: \"IARP_LinkStateUpdate\""
attr mutable ""
par ZrpTestNetworkBig.visualizer.canvasVisualizer.dataLinkVisualizer[1] lineColor "\"orange\""
par ZrpTestNetworkBig.visualizer.canvasVisualizer.dataLinkVisualizer[1] lineStyle "\"solid\""
par ZrpTestNetworkBig.visualizer.canvasVisualizer.dataLinkVisualizer[1] lineWidth 3
par ZrpTestNetworkBig.visualizer.canvasVisualizer.dataLinkVisualizer[1] lineShift 16
par ZrpTestNetworkBig.visualizer.canvasVisualizer.dataLinkVisualizer[1] lineShiftMode "\"normal\""
par ZrpTestNetworkBig.visualizer.canvasVisualizer.dataLinkVisualizer[1] lineContactSpacing 3
par ZrpTestNetworkBig.visualizer.canvasVisualizer.dataLinkVisualizer[1] lineContactMode "\"rectangular\""
attr enum circular,rectangular
par ZrpTestNetworkBig.visualizer.canvasVisualizer.dataLinkVisualizer[1] labelFormat "\"%n\""
par ZrpTestNetworkBig.visualizer.canvasVisualizer.dataLinkVisualizer[1] labelFont "\"<default>, 8px\""
par ZrpTestNetworkBig.visualizer.canvasVisualizer.dataLinkVisualizer[1] labelColor "\"orange\""
par ZrpTestNetworkBig.visualizer.canvasVisualizer.dataLinkVisualizer[1] fadeOutMode "\"realTime\""
attr enum realTime,animationTime,simulationTime
par ZrpTestNetworkBig.visualizer.canvasVisualizer.dataLinkVisualizer[1] fadeOutTime 1s
attr unit s
par ZrpTestNetworkBig.visualizer.canvasVisualizer.dataLinkVisualizer[1] fadeOutAnimationSpeed 0
par ZrpTestNetworkBig.visualizer.canvasVisualizer.dataLinkVisualizer[1] holdAnimationTime 0s
attr unit s
par ZrpTestNetworkBig.visualizer.canvasVisualizer.dataLinkVisualizer[1] zIndex 2
par ZrpTestNetworkBig.visualizer.canvasVisualizer.dataLinkVisualizer[2] typename "\"inet.visualizer.canvas.linklayer.DataLinkCanvasVisualizer\""
par ZrpTestNetworkBig.visualizer.canvasVisualizer.dataLinkVisualizer[2] visualizationTargetModule "\"^.^.^\""
par ZrpTestNetworkBig.visualizer.canvasVisualizer.dataLinkVisualizer[2] visualizationSubjectModule "\"^.^.^\""
par ZrpTestNetworkBig.visualizer.canvasVisualizer.dataLinkVisualizer[2] tags "\"\""
par ZrpTestNetworkBig.visualizer.canvasVisualizer.dataLinkVisualizer[2] displayLinks true
par ZrpTestNetworkBig.visualizer.canvasVisualizer.dataLinkVisualizer[2] activityLevel "\"peer\""
attr enum service,peer,protocol
par ZrpTestNetworkBig.visualizer.canvasVisualizer.dataLinkVisualizer[2] nodeFilter "\"*\""
attr mutable ""
par ZrpTestNetworkBig.visualizer.canvasVisualizer.dataLinkVisualizer[2] interfaceFilter "\"*\""
attr mutable ""
par ZrpTestNetworkBig.visualizer.canvasVisualizer.dataLinkVisualizer[2] packetFilter "(omnetpp::cValueHolder)holder: \"ping*\""
attr mutable ""
par ZrpTestNetworkBig.visualizer.canvasVisualizer.dataLinkVisualizer[2] lineColor "\"blue\""
par ZrpTestNetworkBig.visualizer.canvasVisualizer.dataLinkVisualizer[2] lineStyle "\"solid\""
par ZrpTestNetworkBig.visualizer.canvasVisualizer.dataLinkVisualizer[2] lineWidth 3
par ZrpTestNetworkBig.visualizer.canvasVisualizer.dataLinkVisualizer[2] lineShift 16
par ZrpTestNetworkBig.visualizer.canvasVisualizer.dataLinkVisualizer[2] lineShiftMode "\"normal\""
par ZrpTestNetworkBig.visualizer.canvasVisualizer.dataLinkVisualizer[2] lineContactSpacing 3
par ZrpTestNetworkBig.visualizer.canvasVisualizer.dataLinkVisualizer[2] lineContactMode "\"rectangular\""
attr enum circular,rectangular
par ZrpTestNetworkBig.visualizer.canvasVisualizer.dataLinkVisualizer[2] labelFormat "\"%n\""
par ZrpTestNetworkBig.visualizer.canvasVisualizer.dataLinkVisualizer[2] labelFont "\"<default>, 8px\""
par ZrpTestNetworkBig.visualizer.canvasVisualizer.dataLinkVisualizer[2] labelColor "\"blue\""
par ZrpTestNetworkBig.visualizer.canvasVisualizer.dataLinkVisualizer[2] fadeOutMode "\"realTime\""
attr enum realTime,animationTime,simulationTime
par ZrpTestNetworkBig.visualizer.canvasVisualizer.dataLinkVisualizer[2] fadeOutTime 1s
attr unit s
par ZrpTestNetworkBig.visualizer.canvasVisualizer.dataLinkVisualizer[2] fadeOutAnimationSpeed 0
par ZrpTestNetworkBig.visualizer.canvasVisualizer.dataLinkVisualizer[2] holdAnimationTime 0s
attr unit s
par ZrpTestNetworkBig.visualizer.canvasVisualizer.dataLinkVisualizer[2] zIndex 2
par ZrpTestNetworkBig.visualizer.canvasVisualizer.linkBreakVisualizer[0] typename "\"inet.visualizer.canvas.linklayer.LinkBreakCanvasVisualizer\""
par ZrpTestNetworkBig.visualizer.canvasVisualizer.linkBreakVisualizer[0] visualizationTargetModule "\"^.^.^\""
par ZrpTestNetworkBig.visualizer.canvasVisualizer.linkBreakVisualizer[0] visualizationSubjectModule "\"^.^.^\""
par ZrpTestNetworkBig.visualizer.canvasVisualizer.linkBreakVisualizer[0] tags "\"\""
par ZrpTestNetworkBig.visualizer.canvasVisualizer.linkBreakVisualizer[0] displayLinkBreaks false
par ZrpTestNetworkBig.visualizer.canvasVisualizer.linkBreakVisualizer[0] nodeFilter "\"*\""
attr mutable ""
par ZrpTestNetworkBig.visualizer.canvasVisualizer.linkBreakVisualizer[0] interfaceFilter "\"*\""
attr mutable ""
par ZrpTestNetworkBig.visualizer.canvasVisualizer.linkBreakVisualizer[0] packetFilter "(omnetpp::cValueHolder)holder: \"*\""
attr mutable ""
par ZrpTestNetworkBig.visualizer.canvasVisualizer.linkBreakVisualizer[0] icon "\"status/stop\""
par ZrpTestNetworkBig.visualizer.canvasVisualizer.linkBreakVisualizer[0] iconTintAmount 0
par ZrpTestNetworkBig.visualizer.canvasVisualizer.linkBreakVisualizer[0] iconTintColor "\"\""
par ZrpTestNetworkBig.visualizer.canvasVisualizer.linkBreakVisualizer[0] fadeOutMode "\"realTime\""
attr enum realTime,animationTime,simulationTime
par ZrpTestNetworkBig.visualizer.canvasVisualizer.linkBreakVisualizer[0] fadeOutTime 1s
attr unit s
par ZrpTestNetworkBig.visualizer.canvasVisualizer.linkBreakVisualizer[0] fadeOutAnimationSpeed 0
par ZrpTestNetworkBig.visualizer.canvasVisualizer.linkBreakVisualizer[0] zIndex 2
par ZrpTestNetworkBig.visualizer.canvasVisualizer.ieee80211Visualizer[0] typename "\"inet.visualizer.canvas.linklayer.Ieee80211CanvasVisualizer\""
par ZrpTestNetworkBig.visualizer.canvasVisualizer.ieee80211Visualizer[0] visualizationTargetModule "\"^.^.^\""
par ZrpTestNetworkBig.visualizer.canvasVisualizer.ieee80211Visualizer[0] visualizationSubjectModule "\"^.^.^\""
par ZrpTestNetworkBig.visualizer.canvasVisualizer.ieee80211Visualizer[0] tags "\"\""
par ZrpTestNetworkBig.visualizer.canvasVisualizer.ieee80211Visualizer[0] networkNodeVisualizerModule "\"ZrpTestNetworkBig.visualizer.canvasVisualizer.networkNodeVisualizer[0]\""
par ZrpTestNetworkBig.visualizer.canvasVisualizer.ieee80211Visualizer[0] displayAssociations false
par ZrpTestNetworkBig.visualizer.canvasVisualizer.ieee80211Visualizer[0] nodeFilter "\"*\""
attr mutable ""
par ZrpTestNetworkBig.visualizer.canvasVisualizer.ieee80211Visualizer[0] interfaceFilter "\"*\""
attr mutable ""
par ZrpTestNetworkBig.visualizer.canvasVisualizer.ieee80211Visualizer[0] minPower -85dBm
attr unit dBm
par ZrpTestNetworkBig.visualizer.canvasVisualizer.ieee80211Visualizer[0] maxPower -50dBm
attr unit dBm
par ZrpTestNetworkBig.visualizer.canvasVisualizer.ieee80211Visualizer[0] icons "\"misc/signal_power_0 misc/signal_power_1 misc/signal_power_2 misc/signal_power_3\""
par ZrpTestNetworkBig.visualizer.canvasVisualizer.ieee80211Visualizer[0] iconColor "\"dark\""
par ZrpTestNetworkBig.visualizer.canvasVisualizer.ieee80211Visualizer[0] labelFont "\"<default>\""
par ZrpTestNetworkBig.visualizer.canvasVisualizer.ieee80211Visualizer[0] labelColor "\"black\""
par ZrpTestNetworkBig.visualizer.canvasVisualizer.ieee80211Visualizer[0] placementHint "\"top\""
par ZrpTestNetworkBig.visualizer.canvasVisualizer.ieee80211Visualizer[0] placementPriority 0
par ZrpTestNetworkBig.visualizer.canvasVisualizer.ieee80211Visualizer[0] zIndex 2
par ZrpTestNetworkBig.visualizer.canvasVisualizer.networkRouteVisualizer[0] typename "\"inet.visualizer.canvas.networklayer.NetworkRouteCanvasVisualizer\""
par ZrpTestNetworkBig.visualizer.canvasVisualizer.networkRouteVisualizer[0] visualizationTargetModule "\"^.^.^\""
par ZrpTestNetworkBig.visualizer.canvasVisualizer.networkRouteVisualizer[0] visualizationSubjectModule "\"^.^.^\""
par ZrpTestNetworkBig.visualizer.canvasVisualizer.networkRouteVisualizer[0] tags "\"\""
par ZrpTestNetworkBig.visualizer.canvasVisualizer.networkRouteVisualizer[0] displayRoutes true
par ZrpTestNetworkBig.visualizer.canvasVisualizer.networkRouteVisualizer[0] startPathSignal "\"packetReceivedFromUpper\""
par ZrpTestNetworkBig.visualizer.canvasVisualizer.networkRouteVisualizer[0] extendPathSignal "\"packetReceivedFromLower\""
par ZrpTestNetworkBig.visualizer.canvasVisualizer.networkRouteVisualizer[0] endPathSignal "\"packetSentToUpper\""
par ZrpTestNetworkBig.visualizer.canvasVisualizer.networkRouteVisualizer[0] nodeFilter "\"*\""
attr mutable ""
par ZrpTestNetworkBig.visualizer.canvasVisualizer.networkRouteVisualizer[0] packetFilter "(omnetpp::cValueHolder)holder: \"*ping*\""
attr mutable ""
par ZrpTestNetworkBig.visualizer.canvasVisualizer.networkRouteVisualizer[0] lineColor "\"dark\""
par ZrpTestNetworkBig.visualizer.canvasVisualizer.networkRouteVisualizer[0] lineStyle "\"solid\""
par ZrpTestNetworkBig.visualizer.canvasVisualizer.networkRouteVisualizer[0] lineWidth 3
par ZrpTestNetworkBig.visualizer.canvasVisualizer.networkRouteVisualizer[0] lineSmooth false
par ZrpTestNetworkBig.visualizer.canvasVisualizer.networkRouteVisualizer[0] lineShift 16
par ZrpTestNetworkBig.visualizer.canvasVisualizer.networkRouteVisualizer[0] lineShiftMode "\"normal\""
par ZrpTestNetworkBig.visualizer.canvasVisualizer.networkRouteVisualizer[0] lineContactSpacing 3
par ZrpTestNetworkBig.visualizer.canvasVisualizer.networkRouteVisualizer[0] lineContactMode "\"rectangular\""
attr enum circular,rectangular
par ZrpTestNetworkBig.visualizer.canvasVisualizer.networkRouteVisualizer[0] labelFormat "\"%n\""
par ZrpTestNetworkBig.visualizer.canvasVisualizer.networkRouteVisualizer[0] labelFont "\"<default>, 8px\""
par ZrpTestNetworkBig.visualizer.canvasVisualizer.networkRouteVisualizer[0] labelColor "\"\""
par ZrpTestNetworkBig.visualizer.canvasVisualizer.networkRouteVisualizer[0] fadeOutMode "\"realTime\""
attr enum realTime,animationTime,simulationTime
par ZrpTestNetworkBig.visualizer.canvasVisualizer.networkRouteVisualizer[0] fadeOutTime 1s
attr unit s
par ZrpTestNetworkBig.visualizer.canvasVisualizer.networkRouteVisualizer[0] fadeOutAnimationSpeed 0
par ZrpTestNetworkBig.visualizer.canvasVisualizer.networkRouteVisualizer[0] zIndex 3
par ZrpTestNetworkBig.visualizer.canvasVisualizer.routingTableVisualizer[0] typename "\"inet.visualizer.canvas.networklayer.RoutingTableCanvasVisualizer\""
par ZrpTestNetworkBig.visualizer.canvasVisualizer.routingTableVisualizer[0] visualizationTargetModule "\"^.^.^\""
par ZrpTestNetworkBig.visualizer.canvasVisualizer.routingTableVisualizer[0] visualizationSubjectModule "\"^.^.^\""
par ZrpTestNetworkBig.visualizer.canvasVisualizer.routingTableVisualizer[0] tags "\"\""
par ZrpTestNetworkBig.visualizer.canvasVisualizer.routingTableVisualizer[0] displayRoutingTables true
par ZrpTestNetworkBig.visualizer.canvasVisualizer.routingTableVisualizer[0] displayRoutesIndividually false
par ZrpTestNetworkBig.visualizer.canvasVisualizer.routingTableVisualizer[0] displayLabels false
par ZrpTestNetworkBig.visualizer.canvasVisualizer.routingTableVisualizer[0] destinationFilter "\"*\""
attr mutable ""
par ZrpTestNetworkBig.visualizer.canvasVisualizer.routingTableVisualizer[0] nodeFilter "\"*\""
attr mutable ""
par ZrpTestNetworkBig.visualizer.canvasVisualizer.routingTableVisualizer[0] lineColor "\"black\""
par ZrpTestNetworkBig.visualizer.canvasVisualizer.routingTableVisualizer[0] lineStyle "\"solid\""
par ZrpTestNetworkBig.visualizer.canvasVisualizer.routingTableVisualizer[0] lineWidth 2
par ZrpTestNetworkBig.visualizer.canvasVisualizer.routingTableVisualizer[0] lineShift 0
par ZrpTestNetworkBig.visualizer.canvasVisualizer.routingTableVisualizer[0] lineShiftMode "\"normal\""
par ZrpTestNetworkBig.visualizer.canvasVisualizer.routingTableVisualizer[0] lineContactSpacing 3
par ZrpTestNetworkBig.visualizer.canvasVisualizer.routingTableVisualizer[0] lineContactMode "\"rectangular\""
attr enum circular,rectangular
par ZrpTestNetworkBig.visualizer.canvasVisualizer.routingTableVisualizer[0] labelFormat "\"%d/%m -> %g (%n)\""
attr mutable ""
par ZrpTestNetworkBig.visualizer.canvasVisualizer.routingTableVisualizer[0] labelFont "\"<default>, 8px\""
par ZrpTestNetworkBig.visualizer.canvasVisualizer.routingTableVisualizer[0] labelColor "\"black\""
par ZrpTestNetworkBig.visualizer.canvasVisualizer.routingTableVisualizer[0] zIndex 0
par ZrpTestNetworkBig.visualizer.canvasVisualizer.transportRouteVisualizer[0] typename "\"inet.visualizer.canvas.transportlayer.TransportRouteCanvasVisualizer\""
par ZrpTestNetworkBig.visualizer.canvasVisualizer.transportRouteVisualizer[0] visualizationTargetModule "\"^.^.^\""
par ZrpTestNetworkBig.visualizer.canvasVisualizer.transportRouteVisualizer[0] visualizationSubjectModule "\"^.^.^\""
par ZrpTestNetworkBig.visualizer.canvasVisualizer.transportRouteVisualizer[0] tags "\"\""
par ZrpTestNetworkBig.visualizer.canvasVisualizer.transportRouteVisualizer[0] displayRoutes false
par ZrpTestNetworkBig.visualizer.canvasVisualizer.transportRouteVisualizer[0] startPathSignal "\"packetReceivedFromUpper\""
par ZrpTestNetworkBig.visualizer.canvasVisualizer.transportRouteVisualizer[0] extendPathSignal "\"packetReceivedFromLower\""
par ZrpTestNetworkBig.visualizer.canvasVisualizer.transportRouteVisualizer[0] endPathSignal "\"packetSentToUpper\""
par ZrpTestNetworkBig.visualizer.canvasVisualizer.transportRouteVisualizer[0] nodeFilter "\"*\""
attr mutable ""
par ZrpTestNetworkBig.visualizer.canvasVisualizer.transportRouteVisualizer[0] packetFilter "(omnetpp::cValueHolder)holder: \"*\""
attr mutable ""
par ZrpTestNetworkBig.visualizer.canvasVisualizer.transportRouteVisualizer[0] lineColor "\"dark\""
par ZrpTestNetworkBig.visualizer.canvasVisualizer.transportRouteVisualizer[0] lineStyle "\"solid\""
par ZrpTestNetworkBig.visualizer.canvasVisualizer.transportRouteVisualizer[0] lineWidth 3
par ZrpTestNetworkBig.visualizer.canvasVisualizer.transportRouteVisualizer[0] lineSmooth false
par ZrpTestNetworkBig.visualizer.canvasVisualizer.transportRouteVisualizer[0] lineShift 16
par ZrpTestNetworkBig.visualizer.canvasVisualizer.transportRouteVisualizer[0] lineShiftMode "\"normal\""
par ZrpTestNetworkBig.visualizer.canvasVisualizer.transportRouteVisualizer[0] lineContactSpacing 3
par ZrpTestNetworkBig.visualizer.canvasVisualizer.transportRouteVisualizer[0] lineContactMode "\"rectangular\""
attr enum circular,rectangular
par ZrpTestNetworkBig.visualizer.canvasVisualizer.transportRouteVisualizer[0] labelFormat "\"%n\""
par ZrpTestNetworkBig.visualizer.canvasVisualizer.transportRouteVisualizer[0] labelFont "\"<default>, 8px\""
par ZrpTestNetworkBig.visualizer.canvasVisualizer.transportRouteVisualizer[0] labelColor "\"\""
par ZrpTestNetworkBig.visualizer.canvasVisualizer.transportRouteVisualizer[0] fadeOutMode "\"realTime\""
attr enum realTime,animationTime,simulationTime
par ZrpTestNetworkBig.visualizer.canvasVisualizer.transportRouteVisualizer[0] fadeOutTime 1s
attr unit s
par ZrpTestNetworkBig.visualizer.canvasVisualizer.transportRouteVisualizer[0] fadeOutAnimationSpeed 0
par ZrpTestNetworkBig.visualizer.canvasVisualizer.transportRouteVisualizer[0] zIndex 4
par ZrpTestNetworkBig.visualizer.canvasVisualizer.transportConnectionVisualizer[0] typename "\"inet.visualizer.canvas.transportlayer.TransportConnectionCanvasVisualizer\""
par ZrpTestNetworkBig.visualizer.canvasVisualizer.transportConnectionVisualizer[0] visualizationTargetModule "\"^.^.^\""
par ZrpTestNetworkBig.visualizer.canvasVisualizer.transportConnectionVisualizer[0] visualizationSubjectModule "\"^.^.^\""
par ZrpTestNetworkBig.visualizer.canvasVisualizer.transportConnectionVisualizer[0] tags "\"\""
par ZrpTestNetworkBig.visualizer.canvasVisualizer.transportConnectionVisualizer[0] networkNodeVisualizerModule "\"ZrpTestNetworkBig.visualizer.canvasVisualizer.networkNodeVisualizer[0]\""
par ZrpTestNetworkBig.visualizer.canvasVisualizer.transportConnectionVisualizer[0] displayTransportConnections false
par ZrpTestNetworkBig.visualizer.canvasVisualizer.transportConnectionVisualizer[0] sourceNodeFilter "\"*\""
attr mutable ""
par ZrpTestNetworkBig.visualizer.canvasVisualizer.transportConnectionVisualizer[0] sourcePortFilter "\"*\""
attr mutable ""
par ZrpTestNetworkBig.visualizer.canvasVisualizer.transportConnectionVisualizer[0] destinationNodeFilter "\"*\""
attr mutable ""
par ZrpTestNetworkBig.visualizer.canvasVisualizer.transportConnectionVisualizer[0] destinationPortFilter "\"*\""
attr mutable ""
par ZrpTestNetworkBig.visualizer.canvasVisualizer.transportConnectionVisualizer[0] icon "\"misc/marker_s\""
par ZrpTestNetworkBig.visualizer.canvasVisualizer.transportConnectionVisualizer[0] iconColor "\"dark\""
par ZrpTestNetworkBig.visualizer.canvasVisualizer.transportConnectionVisualizer[0] labelFont "\"<default>\""
par ZrpTestNetworkBig.visualizer.canvasVisualizer.transportConnectionVisualizer[0] labelColor "\"black\""
par ZrpTestNetworkBig.visualizer.canvasVisualizer.transportConnectionVisualizer[0] placementHint "\"top\""
par ZrpTestNetworkBig.visualizer.canvasVisualizer.transportConnectionVisualizer[0] placementPriority 0
par ZrpTestNetworkBig.visualizer.canvasVisualizer.transportConnectionVisualizer[0] zIndex 4
par ZrpTestNetworkBig.visualizer.canvasVisualizer.failureProtectionConfigurationVisualizer[0] typename "\"inet.visualizer.canvas.configurator.FailureProtectionConfigurationCanvasVisualizer\""
par ZrpTestNetworkBig.visualizer.canvasVisualizer.failureProtectionConfigurationVisualizer[0] visualizationTargetModule "\"^.^.^\""
par ZrpTestNetworkBig.visualizer.canvasVisualizer.failureProtectionConfigurationVisualizer[0] visualizationSubjectModule "\"^.^.^\""
par ZrpTestNetworkBig.visualizer.canvasVisualizer.failureProtectionConfigurationVisualizer[0] tags "\"\""
par ZrpTestNetworkBig.visualizer.canvasVisualizer.failureProtectionConfigurationVisualizer[0] displayTrees false
par ZrpTestNetworkBig.visualizer.canvasVisualizer.failureProtectionConfigurationVisualizer[0] lineColor "\"dark\""
par ZrpTestNetworkBig.visualizer.canvasVisualizer.failureProtectionConfigurationVisualizer[0] lineStyle "\"solid\""
par ZrpTestNetworkBig.visualizer.canvasVisualizer.failureProtectionConfigurationVisualizer[0] lineWidth 3
par ZrpTestNetworkBig.visualizer.canvasVisualizer.failureProtectionConfigurationVisualizer[0] lineSmooth false
par ZrpTestNetworkBig.visualizer.canvasVisualizer.failureProtectionConfigurationVisualizer[0] lineShift 16
par ZrpTestNetworkBig.visualizer.canvasVisualizer.failureProtectionConfigurationVisualizer[0] lineShiftMode "\"normal\""
par ZrpTestNetworkBig.visualizer.canvasVisualizer.failureProtectionConfigurationVisualizer[0] lineContactSpacing 3
par ZrpTestNetworkBig.visualizer.canvasVisualizer.failureProtectionConfigurationVisualizer[0] lineContactMode "\"rectangular\""
attr enum circular,rectangular
par ZrpTestNetworkBig.visualizer.canvasVisualizer.failureProtectionConfigurationVisualizer[0] failureProtectionConfiguratorModule "\"failureProtectionConfigurator\""
par ZrpTestNetworkBig.visualizer.canvasVisualizer.failureProtectionConfigurationVisualizer[0] streamFilter "\"*\""
par ZrpTestNetworkBig.visualizer.canvasVisualizer.failureProtectionConfigurationVisualizer[0] zIndex 3
par ZrpTestNetworkBig.visualizer.canvasVisualizer.streamRedundancyConfigurationVisualizer[0] typename "\"inet.visualizer.canvas.configurator.StreamRedundancyConfigurationCanvasVisualizer\""
par ZrpTestNetworkBig.visualizer.canvasVisualizer.streamRedundancyConfigurationVisualizer[0] visualizationTargetModule "\"^.^.^\""
par ZrpTestNetworkBig.visualizer.canvasVisualizer.streamRedundancyConfigurationVisualizer[0] visualizationSubjectModule "\"^.^.^\""
par ZrpTestNetworkBig.visualizer.canvasVisualizer.streamRedundancyConfigurationVisualizer[0] tags "\"\""
par ZrpTestNetworkBig.visualizer.canvasVisualizer.streamRedundancyConfigurationVisualizer[0] displayTrees false
par ZrpTestNetworkBig.visualizer.canvasVisualizer.streamRedundancyConfigurationVisualizer[0] lineColor "\"dark\""
par ZrpTestNetworkBig.visualizer.canvasVisualizer.streamRedundancyConfigurationVisualizer[0] lineStyle "\"solid\""
par ZrpTestNetworkBig.visualizer.canvasVisualizer.streamRedundancyConfigurationVisualizer[0] lineWidth 3
par ZrpTestNetworkBig.visualizer.canvasVisualizer.streamRedundancyConfigurationVisualizer[0] lineSmooth false
par ZrpTestNetworkBig.visualizer.canvasVisualizer.streamRedundancyConfigurationVisualizer[0] lineShift 16
par ZrpTestNetworkBig.visualizer.canvasVisualizer.streamRedundancyConfigurationVisualizer[0] lineShiftMode "\"normal\""
par ZrpTestNetworkBig.visualizer.canvasVisualizer.streamRedundancyConfigurationVisualizer[0] lineContactSpacing 3
par ZrpTestNetworkBig.visualizer.canvasVisualizer.streamRedundancyConfigurationVisualizer[0] lineContactMode "\"rectangular\""
attr enum circular,rectangular
par ZrpTestNetworkBig.visualizer.canvasVisualizer.streamRedundancyConfigurationVisualizer[0] streamRedundancyConfiguratorModule "\"streamRedundancyConfigurator\""
par ZrpTestNetworkBig.visualizer.canvasVisualizer.streamRedundancyConfigurationVisualizer[0] streamFilter "\"*\""
par ZrpTestNetworkBig.visualizer.canvasVisualizer.streamRedundancyConfigurationVisualizer[0] zIndex 3
par ZrpTestNetworkBig.visualizer.canvasVisualizer typename "\"inet.visualizer.canvas.integrated.IntegratedMultiCanvasVisualizer\""
par ZrpTestNetworkBig.visualizer.canvasVisualizer numSceneVisualizers 1
par ZrpTestNetworkBig.visualizer.canvasVisualizer numPhysicalEnvironmentVisualizers 1
par ZrpTestNetworkBig.visualizer.canvasVisualizer numNetworkNodeVisualizers 1
par ZrpTestNetworkBig.visualizer.canvasVisualizer numNetworkConnectionVisualizers 1
par ZrpTestNetworkBig.visualizer.canvasVisualizer numMobilityVisualizers 1
par ZrpTestNetworkBig.visualizer.canvasVisualizer numStatisticVisualizers 1
par ZrpTestNetworkBig.visualizer.canvasVisualizer numInfoVisualizers 1
par ZrpTestNetworkBig.visualizer.canvasVisualizer numEnergyStorageVisualizers 1
par ZrpTestNetworkBig.visualizer.canvasVisualizer numMediumVisualizers 1
par ZrpTestNetworkBig.visualizer.canvasVisualizer numObstacleLossVisualizers 1
par ZrpTestNetworkBig.visualizer.canvasVisualizer numPacketDropVisualizers 1
par ZrpTestNetworkBig.visualizer.canvasVisualizer numQueueVisualizers 1
par ZrpTestNetworkBig.visualizer.canvasVisualizer numGateScheduleVisualizers 1
par ZrpTestNetworkBig.visualizer.canvasVisualizer numRadioVisualizers 1
par ZrpTestNetworkBig.visualizer.canvasVisualizer numPhysicalLinkVisualizers 1
par ZrpTestNetworkBig.visualizer.canvasVisualizer numInterfaceTableVisualizers 1
par ZrpTestNetworkBig.visualizer.canvasVisualizer numDataLinkVisualizers 3
par ZrpTestNetworkBig.visualizer.canvasVisualizer numLinkBreakVisualizers 1
par ZrpTestNetworkBig.visualizer.canvasVisualizer numIeee80211Visualizers 1
par ZrpTestNetworkBig.visualizer.canvasVisualizer numNetworkRouteVisualizers 1
par ZrpTestNetworkBig.visualizer.canvasVisualizer numRoutingTableVisualizers 1
par ZrpTestNetworkBig.visualizer.canvasVisualizer numTransportRouteVisualizers 1
par ZrpTestNetworkBig.visualizer.canvasVisualizer numTransportConnectionVisualizers 1
par ZrpTestNetworkBig.visualizer.canvasVisualizer numFailureProtectionConfigurationVisualizers 1
par ZrpTestNetworkBig.visualizer.canvasVisualizer numStreamRedundancyConfigurationVisualizers 1
par ZrpTestNetworkBig.visualizer typename "\"inet.visualizer.common.IntegratedMultiVisualizer\""
par ZrpTestNetworkBig.source.radioIn[0].channel typename "\"ned.IdealChannel\""
par ZrpTestNetworkBig.source.mobility typename "\"inet.mobility.static.StationaryMobility\""
par ZrpTestNetworkBig.source.mobility subjectModule "\"^\""
par ZrpTestNetworkBig.source.mobility coordinateSystemModule "\"\""
par ZrpTestNetworkBig.source.mobility displayStringTextFormat "\"p: %p\\nv: %v\""
attr mutable ""
par ZrpTestNetworkBig.source.mobility updateDisplayString true
par ZrpTestNetworkBig.source.mobility constraintAreaMinX "-inf m"
attr unit m
par ZrpTestNetworkBig.source.mobility constraintAreaMinY "-inf m"
attr unit m
par ZrpTestNetworkBig.source.mobility constraintAreaMinZ "-inf m"
attr unit m
par ZrpTestNetworkBig.source.mobility constraintAreaMaxX "inf m"
attr unit m
par ZrpTestNetworkBig.source.mobility constraintAreaMaxY "inf m"
attr unit m
par ZrpTestNetworkBig.source.mobility constraintAreaMaxZ "inf m"
attr unit m
par ZrpTestNetworkBig.source.mobility initialX "nan m"
attr unit m
par ZrpTestNetworkBig.source.mobility initialY "nan m"
attr unit m
par ZrpTestNetworkBig.source.mobility initialZ 0m
attr unit m
par ZrpTestNetworkBig.source.mobility initialLatitude "nan deg"
attr unit deg
par ZrpTestNetworkBig.source.mobility initialLongitude "nan deg"
attr unit deg
par ZrpTestNetworkBig.source.mobility initialAltitude 0m
attr unit m
par ZrpTestNetworkBig.source.mobility initialHeading 0deg
attr unit deg
par ZrpTestNetworkBig.source.mobility initialElevation 0deg
attr unit deg
par ZrpTestNetworkBig.source.mobility initialBank 0deg
attr unit deg
par ZrpTestNetworkBig.source.mobility initFromDisplayString true
par ZrpTestNetworkBig.source.mobility updateFromDisplayString true
par ZrpTestNetworkBig.source.interfaceTable typename "\"inet.networklayer.common.InterfaceTable\""
par ZrpTestNetworkBig.source.interfaceTable displayAddresses false
par ZrpTestNetworkBig.source.cb typename "\"inet.common.MessageDispatcher\""
par ZrpTestNetworkBig.source.cb displayStringTextFormat "\"processed %p pk (%l)\""
par ZrpTestNetworkBig.source.cb forwardServiceRegistration true
par ZrpTestNetworkBig.source.cb forwardProtocolRegistration true
par ZrpTestNetworkBig.source.bl typename "\"inet.common.MessageDispatcher\""
par ZrpTestNetworkBig.source.bl displayStringTextFormat "\"processed %p pk (%l)\""
par ZrpTestNetworkBig.source.bl forwardServiceRegistration true
par ZrpTestNetworkBig.source.bl forwardProtocolRegistration true
par ZrpTestNetworkBig.source.li typename "\"inet.common.MessageDispatcher\""
par ZrpTestNetworkBig.source.li displayStringTextFormat "\"processed %p pk (%l)\""
par ZrpTestNetworkBig.source.li forwardServiceRegistration true
par ZrpTestNetworkBig.source.li forwardProtocolRegistration true
par ZrpTestNetworkBig.source.lo[0].upperLayerIn.channel typename "\"ned.IdealChannel\""
par ZrpTestNetworkBig.source.lo[0].lo.upperLayerOut.channel typename "\"ned.IdealChannel\""
par ZrpTestNetworkBig.source.lo[0].lo typename "\"inet.linklayer.loopback.Loopback\""
par ZrpTestNetworkBig.source.lo[0].lo interfaceTableModule "\"ZrpTestNetworkBig.source.interfaceTable\""
par ZrpTestNetworkBig.source.lo[0].lo mtu 4470B
attr unit B
scalar ZrpTestNetworkBig.source.lo[0].lo rcvdPkFromHl:count 0
attr interpolationmode none
attr recordingmode count
attr source packetReceivedFromUpper
attr title "packets received from higher layer, count"
scalar ZrpTestNetworkBig.source.lo[0].lo rcvdPkFromHl:sum(packetBytes) 0
attr interpolationmode none
attr recordingmode sum(packetBytes)
attr source packetReceivedFromUpper
attr title "packets received from higher layer, sum(packetBytes)"
scalar ZrpTestNetworkBig.source.lo[0].lo passedUpPk:count 0
attr interpolationmode none
attr recordingmode count
attr source packetSentToUpper
attr title "packets passed to higher layer, count"
scalar ZrpTestNetworkBig.source.lo[0].lo passedUpPk:sum(packetBytes) 0
attr interpolationmode none
attr recordingmode sum(packetBytes)
attr source packetSentToUpper
attr title "packets passed to higher layer, sum(packetBytes)"
par ZrpTestNetworkBig.source.lo[0] typename "\"inet.linklayer.loopback.LoopbackInterface\""
par ZrpTestNetworkBig.source.lo[0] displayStringTextFormat "\"%a (%i)\\n%m\""
par ZrpTestNetworkBig.source.lo[0] recordPcap false
par ZrpTestNetworkBig.source.lo[0] numPcapRecorders 0
par ZrpTestNetworkBig.source.lo[0] interfaceTableModule "\"ZrpTestNetworkBig.source.interfaceTable\""
scalar ZrpTestNetworkBig.source.lo[0] packetDropInterfaceDown:count 0
attr interpolationmode none
attr recordingmode count
attr source packetDropReasonIsInterfaceDown(packetDropped)
attr title "packet drops: interface down, count"
scalar ZrpTestNetworkBig.source.lo[0] packetDropInterfaceDown:sum(packetBytes) 0
attr interpolationmode none
attr recordingmode sum(packetBytes)
attr source packetDropReasonIsInterfaceDown(packetDropped)
attr title "packet drops: interface down, sum(packetBytes)"
scalar ZrpTestNetworkBig.source.lo[0] packetDropNoCarrier:count 0
attr interpolationmode none
attr recordingmode count
attr source packetDropReasonIsNoCarrier(packetDropped)
attr title "packet drops: no carrier, count"
scalar ZrpTestNetworkBig.source.lo[0] packetDropNoCarrier:sum(packetBytes) 0
attr interpolationmode none
attr recordingmode sum(packetBytes)
attr source packetDropReasonIsNoCarrier(packetDropped)
attr title "packet drops: no carrier, sum(packetBytes)"
par ZrpTestNetworkBig.source.wlan[0].radioIn.channel typename "\"ned.IdealChannel\""
par ZrpTestNetworkBig.source.wlan[0].llc.upperLayerOut.channel typename "\"ned.IdealChannel\""
par ZrpTestNetworkBig.source.wlan[0].upperLayerIn.channel typename "\"ned.IdealChannel\""
[...]
attr source radioModeChanged
attr title "Radio mode, count"
scalar ZrpTestNetworkBig.node12.wlan[0].radio receptionState:count 225
attr interpolationmode sample-hold
attr recordingmode count
attr source receptionStateChanged
attr title "Radio reception state, count"
scalar ZrpTestNetworkBig.node12.wlan[0].radio transmissionState:count 88
attr interpolationmode sample-hold
attr recordingmode count
attr source transmissionStateChanged
attr title "Radio transmission state, count"
statistic ZrpTestNetworkBig.node12.wlan[0].radio minSnir:histogram
field count 90
field mean 692.0665210765
field stddev 100.22155815201
field min 551.21071447596
field max 817.62538742326
field sum 62285.986896885
field sqrsum 43999994.367483
attr recordingmode histogram
attr source minimumSnir(packetSentToUpper)
attr title "Min SNIR"
bin	-inf	0
bin	480	0
bin	485	0
bin	490	0
bin	495	0
bin	500	0
bin	505	0
bin	510	0
bin	515	0
bin	520	0
bin	525	0
bin	530	0
bin	535	0
bin	540	0
bin	545	0
bin	550	26
bin	555	0
bin	560	0
bin	565	0
bin	570	0
bin	575	0
bin	580	0
bin	585	0
bin	590	0
bin	595	0
bin	600	0
bin	605	0
bin	610	0
bin	615	0
bin	620	0
bin	625	0
bin	630	0
bin	635	0
bin	640	0
bin	645	0
bin	650	0
bin	655	0
bin	660	0
bin	665	0
bin	670	0
bin	675	0
bin	680	0
bin	685	0
bin	690	0
bin	695	0
bin	700	0
bin	705	16
bin	710	25
bin	715	0
bin	720	0
bin	725	0
bin	730	0
bin	735	0
bin	740	0
bin	745	0
bin	750	0
bin	755	0
bin	760	0
bin	765	0
bin	770	0
bin	775	0
bin	780	0
bin	785	0
bin	790	0
bin	795	0
bin	800	0
bin	805	0
bin	810	0
bin	815	23
bin	820	0
bin	825	0
bin	830	0
bin	835	0
bin	840	0
bin	845	0
bin	850	0
bin	855	0
bin	860	0
bin	865	0
bin	870	0
bin	875	0
bin	880	0
bin	885	0
statistic ZrpTestNetworkBig.node12.wlan[0].radio packetErrorRate:histogram
field count 90
field mean 0
field stddev 0
field min 0
field max 0
field sum 0
field sqrsum 0
attr recordingmode histogram
attr source packetErrorRate(packetSentToUpper)
attr title "Packet error rate"
bin	-inf	0
bin	-0.5	0
bin	-0.48	0
bin	-0.46	0
bin	-0.44	0
bin	-0.42	0
bin	-0.4	0
bin	-0.38	0
bin	-0.36	0
bin	-0.34	0
bin	-0.32	0
bin	-0.3	0
bin	-0.28	0
bin	-0.26	0
bin	-0.24	0
bin	-0.22	0
bin	-0.2	0
bin	-0.18	0
bin	-0.16	0
bin	-0.14	0
bin	-0.12	0
bin	-0.1	0
bin	-0.08	0
bin	-0.06	0
bin	-0.04	0
bin	-0.02	0
bin	0	90
bin	0.02	0
bin	0.04	0
bin	0.06	0
bin	0.08	0
bin	0.1	0
bin	0.12	0
bin	0.14	0
bin	0.16	0
bin	0.18	0
bin	0.2	0
bin	0.22	0
bin	0.24	0
bin	0.26	0
bin	0.28	0
bin	0.3	0
bin	0.32	0
bin	0.34	0
bin	0.36	0
bin	0.38	0
bin	0.4	0
bin	0.42	0
bin	0.44	0
bin	0.46	0
bin	0.48	0
bin	0.5	0
statistic ZrpTestNetworkBig.node12.wlan[0].radio bitErrorRate:histogram
field count 0
field mean -nan
field stddev nan
field min nan
field max nan
field sum 0
field sqrsum 0
attr recordingmode histogram
attr source bitErrorRate(packetSentToUpper)
attr title "Bit error rate"
bin	-inf	0
bin	0	0
bin	1	0
statistic ZrpTestNetworkBig.node12.wlan[0].radio symbolErrorRate:histogram
field count 0
field mean -nan
field stddev nan
field min nan
field max nan
field sum 0
field sqrsum 0
attr recordingmode histogram
attr source symbolErrorRate(packetSentToUpper)
attr title "Symbol error rate"
bin	-inf	0
bin	0	0
bin	1	0
par ZrpTestNetworkBig.node12.wlan[0] typename "\"inet.linklayer.ieee80211.Ieee80211Interface\""
par ZrpTestNetworkBig.node12.wlan[0] displayStringTextFormat "\"%a (%i)\\n%m\""
par ZrpTestNetworkBig.node12.wlan[0] recordPcap false
par ZrpTestNetworkBig.node12.wlan[0] numPcapRecorders 0
par ZrpTestNetworkBig.node12.wlan[0] interfaceTableModule "\"ZrpTestNetworkBig.node12.interfaceTable\""
par ZrpTestNetworkBig.node12.wlan[0] energySourceModule "\"\""
par ZrpTestNetworkBig.node12.wlan[0] opMode "\"g(mixed)\""
attr enum a,b,g(erp),g(mixed),n(mixed-2.4Ghz),p,ac
par ZrpTestNetworkBig.node12.wlan[0] address "\"0A-AA-00-00-00-0E\""
attr mutable ""
par ZrpTestNetworkBig.node12.wlan[0] protocol "\"\""
par ZrpTestNetworkBig.node12.wlan[0] bitrate 2.4e+07bps
attr unit bps
scalar ZrpTestNetworkBig.node12.wlan[0] packetDropInterfaceDown:count 0
attr interpolationmode none
attr recordingmode count
attr source packetDropReasonIsInterfaceDown(packetDropped)
attr title "packet drops: interface down, count"
scalar ZrpTestNetworkBig.node12.wlan[0] packetDropInterfaceDown:sum(packetBytes) 0
attr interpolationmode none
attr recordingmode sum(packetBytes)
attr source packetDropReasonIsInterfaceDown(packetDropped)
attr title "packet drops: interface down, sum(packetBytes)"
scalar ZrpTestNetworkBig.node12.wlan[0] packetDropNoCarrier:count 0
attr interpolationmode none
attr recordingmode count
attr source packetDropReasonIsNoCarrier(packetDropped)
attr title "packet drops: no carrier, count"
scalar ZrpTestNetworkBig.node12.wlan[0] packetDropNoCarrier:sum(packetBytes) 0
attr interpolationmode none
attr recordingmode sum(packetBytes)
attr source packetDropReasonIsNoCarrier(packetDropped)
attr title "packet drops: no carrier, sum(packetBytes)"
par ZrpTestNetworkBig.node12.ipv4.transportIn.channel typename "\"ned.IdealChannel\""
par ZrpTestNetworkBig.node12.ipv4.up.out[0].channel typename "\"ned.IdealChannel\""
par ZrpTestNetworkBig.node12.ipv4.lp.out[2].channel typename "\"ned.IdealChannel\""
par ZrpTestNetworkBig.node12.ipv4.ifIn.channel typename "\"ned.IdealChannel\""
par ZrpTestNetworkBig.node12.ipv4.configurator typename "\"inet.networklayer.configurator.ipv4.Ipv4NodeConfigurator\""
par ZrpTestNetworkBig.node12.ipv4.configurator interfaceTableModule "\"ZrpTestNetworkBig.node12.interfaceTable\""
par ZrpTestNetworkBig.node12.ipv4.configurator routingTableModule "\"ZrpTestNetworkBig.node12.ipv4.routingTable\""
par ZrpTestNetworkBig.node12.ipv4.configurator networkConfiguratorModule "\"configurator\""
par ZrpTestNetworkBig.node12.ipv4.configurator configureRoutingTable true
par ZrpTestNetworkBig.node12.ipv4.routingTable typename "\"inet.networklayer.ipv4.Ipv4RoutingTable\""
par ZrpTestNetworkBig.node12.ipv4.routingTable interfaceTableModule "\"ZrpTestNetworkBig.node12.interfaceTable\""
par ZrpTestNetworkBig.node12.ipv4.routingTable routerId "\"auto\""
par ZrpTestNetworkBig.node12.ipv4.routingTable netmaskRoutes "\"\""
par ZrpTestNetworkBig.node12.ipv4.routingTable forwarding true
par ZrpTestNetworkBig.node12.ipv4.routingTable multicastForwarding false
par ZrpTestNetworkBig.node12.ipv4.routingTable useAdminDist false
par ZrpTestNetworkBig.node12.ipv4.routingTable routingFile "\"\""
par ZrpTestNetworkBig.node12.ipv4.natTable typename "\"inet.networklayer.ipv4.Ipv4NatTable\""
par ZrpTestNetworkBig.node12.ipv4.natTable networkProtocolModule "\"^.ip\""
par ZrpTestNetworkBig.node12.ipv4.natTable config "<config/> at content:1"
par ZrpTestNetworkBig.node12.ipv4.up typename "\"inet.common.MessageDispatcher\""
par ZrpTestNetworkBig.node12.ipv4.up displayStringTextFormat "\"processed %p pk (%l)\""
par ZrpTestNetworkBig.node12.ipv4.up forwardServiceRegistration true
par ZrpTestNetworkBig.node12.ipv4.up forwardProtocolRegistration true
par ZrpTestNetworkBig.node12.ipv4.igmp typename "\"inet.networklayer.ipv4.Igmpv2\""
par ZrpTestNetworkBig.node12.ipv4.igmp interfaceTableModule "\"ZrpTestNetworkBig.node12.interfaceTable\""
par ZrpTestNetworkBig.node12.ipv4.igmp routingTableModule "\"ZrpTestNetworkBig.node12.ipv4.routingTable\""
par ZrpTestNetworkBig.node12.ipv4.igmp crcMode "\"declared\""
attr enum declared,computed
par ZrpTestNetworkBig.node12.ipv4.igmp enabled true
par ZrpTestNetworkBig.node12.ipv4.igmp robustnessVariable 2
par ZrpTestNetworkBig.node12.ipv4.igmp queryInterval 125s
attr unit s
par ZrpTestNetworkBig.node12.ipv4.igmp queryResponseInterval 10s
attr unit s
par ZrpTestNetworkBig.node12.ipv4.igmp groupMembershipInterval 260s
attr unit s
par ZrpTestNetworkBig.node12.ipv4.igmp otherQuerierPresentInterval 255s
attr unit s
par ZrpTestNetworkBig.node12.ipv4.igmp startupQueryInterval 31.25s
attr unit s
par ZrpTestNetworkBig.node12.ipv4.igmp startupQueryCount 2
par ZrpTestNetworkBig.node12.ipv4.igmp lastMemberQueryInterval 1s
attr unit s
par ZrpTestNetworkBig.node12.ipv4.igmp lastMemberQueryCount 2
par ZrpTestNetworkBig.node12.ipv4.igmp unsolicitedReportInterval 10s
attr unit s
par ZrpTestNetworkBig.node12.ipv4.icmp typename "\"inet.networklayer.ipv4.Icmp\""
par ZrpTestNetworkBig.node12.ipv4.icmp interfaceTableModule "\"ZrpTestNetworkBig.node12.interfaceTable\""
par ZrpTestNetworkBig.node12.ipv4.icmp routingTableModule "\"ZrpTestNetworkBig.node12.ipv4.routingTable\""
par ZrpTestNetworkBig.node12.ipv4.icmp crcMode "\"declared\""
attr enum declared,computed
attr mutable ""
par ZrpTestNetworkBig.node12.ipv4.icmp quoteLength 8B
attr mutable ""
attr unit B
par ZrpTestNetworkBig.node12.ipv4.mp typename "\"inet.common.MessageDispatcher\""
par ZrpTestNetworkBig.node12.ipv4.mp displayStringTextFormat "\"processed %p pk (%l)\""
par ZrpTestNetworkBig.node12.ipv4.mp forwardServiceRegistration true
par ZrpTestNetworkBig.node12.ipv4.mp forwardProtocolRegistration true
par ZrpTestNetworkBig.node12.ipv4.ip typename "\"inet.networklayer.ipv4.Ipv4\""
par ZrpTestNetworkBig.node12.ipv4.ip interfaceTableModule "\"ZrpTestNetworkBig.node12.interfaceTable\""
par ZrpTestNetworkBig.node12.ipv4.ip routingTableModule "\"ZrpTestNetworkBig.node12.ipv4.routingTable\""
par ZrpTestNetworkBig.node12.ipv4.ip arpModule "\"ZrpTestNetworkBig.node12.ipv4.arp\""
par ZrpTestNetworkBig.node12.ipv4.ip icmpModule "\"ZrpTestNetworkBig.node12.ipv4.icmp\""
par ZrpTestNetworkBig.node12.ipv4.ip crcMode "\"declared\""
attr enum declared,computed
par ZrpTestNetworkBig.node12.ipv4.ip timeToLive 32
par ZrpTestNetworkBig.node12.ipv4.ip multicastTimeToLive 32
par ZrpTestNetworkBig.node12.ipv4.ip fragmentTimeout 60s
attr unit s
par ZrpTestNetworkBig.node12.ipv4.ip limitedBroadcast false
par ZrpTestNetworkBig.node12.ipv4.ip directBroadcastInterfaces "\"\""
scalar ZrpTestNetworkBig.node12.ipv4.ip packetDropAddressResolutionFailed:count 0
attr interpolationmode none
attr recordingmode count
attr source packetDropReasonIsAddressResolutionFailed(packetDropped)
attr title "packet drop: address resolution failed, count"
scalar ZrpTestNetworkBig.node12.ipv4.ip packetDropAddressResolutionFailed:sum(packetBytes) 0
attr interpolationmode none
attr recordingmode sum(packetBytes)
attr source packetDropReasonIsAddressResolutionFailed(packetDropped)
attr title "packet drop: address resolution failed, sum(packetBytes)"
scalar ZrpTestNetworkBig.node12.ipv4.ip packetDropHopLimitReached:count 0
attr interpolationmode none
attr recordingmode count
attr source packetDropReasonIsHopLimitReached(packetDropped)
attr title "packet drop: hop limit reached, count"
scalar ZrpTestNetworkBig.node12.ipv4.ip packetDropHopLimitReached:sum(packetBytes) 0
attr interpolationmode none
attr recordingmode sum(packetBytes)
attr source packetDropReasonIsHopLimitReached(packetDropped)
attr title "packet drop: hop limit reached, sum(packetBytes)"
scalar ZrpTestNetworkBig.node12.ipv4.ip packetDropForwardingDisabled:count 0
attr interpolationmode none
attr recordingmode count
attr source packetDropReasonIsForwardingDisabled(packetDropped)
attr title "packet drop: forwarding disabled, count"
scalar ZrpTestNetworkBig.node12.ipv4.ip packetDropForwardingDisabled:sum(packetBytes) 0
attr interpolationmode none
attr recordingmode sum(packetBytes)
attr source packetDropReasonIsForwardingDisabled(packetDropped)
attr title "packet drop: forwarding disabled, sum(packetBytes)"
scalar ZrpTestNetworkBig.node12.ipv4.ip packetDropNoInterfaceFound:count 0
attr interpolationmode none
attr recordingmode count
attr source packetDropReasonIsNoInterfaceFound(packetDropped)
attr title "packet drop: no interface found, count"
scalar ZrpTestNetworkBig.node12.ipv4.ip packetDropNoInterfaceFound:sum(packetBytes) 0
attr interpolationmode none
attr recordingmode sum(packetBytes)
attr source packetDropReasonIsNoInterfaceFound(packetDropped)
attr title "packet drop: no interface found, sum(packetBytes)"
scalar ZrpTestNetworkBig.node12.ipv4.ip packetDropNoRouteFound:count 0
attr interpolationmode none
attr recordingmode count
attr source packetDropReasonIsNoRouteFound(packetDropped)
attr title "packet drop: no route found, count"
scalar ZrpTestNetworkBig.node12.ipv4.ip packetDropNoRouteFound:sum(packetBytes) 0
attr interpolationmode none
attr recordingmode sum(packetBytes)
attr source packetDropReasonIsNoRouteFound(packetDropped)
attr title "packet drop: no route found, sum(packetBytes)"
scalar ZrpTestNetworkBig.node12.ipv4.ip packetDropUndefined:count 0
attr interpolationmode none
attr recordingmode count
attr source packetDropReasonIsUndefined(packetDropped)
attr title "packet drop: undefined, count"
scalar ZrpTestNetworkBig.node12.ipv4.ip packetDropUndefined:sum(packetBytes) 0
attr interpolationmode none
attr recordingmode sum(packetBytes)
attr source packetDropReasonIsUndefined(packetDropped)
attr title "packet drop: undefined, sum(packetBytes)"
par ZrpTestNetworkBig.node12.ipv4.arp typename "\"inet.networklayer.arp.ipv4.GlobalArp\""
par ZrpTestNetworkBig.node12.ipv4.arp interfaceTableModule "\"ZrpTestNetworkBig.node12.interfaceTable\""
par ZrpTestNetworkBig.node12.ipv4.arp addressType "\"ipv4\""
attr enum ipv4,ipv6,mac,moduleid,modulepath
par ZrpTestNetworkBig.node12.ipv4.lp typename "\"inet.common.MessageDispatcher\""
par ZrpTestNetworkBig.node12.ipv4.lp displayStringTextFormat "\"processed %p pk (%l)\""
par ZrpTestNetworkBig.node12.ipv4.lp forwardServiceRegistration true
par ZrpTestNetworkBig.node12.ipv4.lp forwardProtocolRegistration true
par ZrpTestNetworkBig.node12.ipv4 typename "\"inet.networklayer.ipv4.Ipv4NetworkLayer\""
par ZrpTestNetworkBig.node12.ipv4 forwarding true
par ZrpTestNetworkBig.node12.ipv4 multicastForwarding false
par ZrpTestNetworkBig.node12.ipv4 interfaceTableModule "\"ZrpTestNetworkBig.node12.interfaceTable\""
par ZrpTestNetworkBig.node12.ipv4 displayStringTextFormat "\"%i\""
par ZrpTestNetworkBig.node12.nl typename "\"inet.common.MessageDispatcher\""
par ZrpTestNetworkBig.node12.nl displayStringTextFormat "\"processed %p pk (%l)\""
par ZrpTestNetworkBig.node12.nl forwardServiceRegistration true
par ZrpTestNetworkBig.node12.nl forwardProtocolRegistration true
par ZrpTestNetworkBig.node12.udp typename "\"inet.transportlayer.udp.Udp\""
par ZrpTestNetworkBig.node12.udp interfaceTableModule "\"ZrpTestNetworkBig.node12.interfaceTable\""
par ZrpTestNetworkBig.node12.udp icmpModule "\"^.ipv4.icmp\""
par ZrpTestNetworkBig.node12.udp icmpv6Module "\"^.ipv6.icmpv6\""
par ZrpTestNetworkBig.node12.udp crcMode "\"declared\""
attr enum disabled,declared,computed
par ZrpTestNetworkBig.node12.udp defaultMulticastLoop true
scalar ZrpTestNetworkBig.node12.udp packetReceived:count 67
attr interpolationmode none
attr recordingmode count
attr source packetReceived
attr title "packets received, count"
scalar ZrpTestNetworkBig.node12.udp packetReceived:sum(packetBytes) 1976
attr interpolationmode none
attr recordingmode sum(packetBytes)
attr source packetReceived
attr title "packets received, sum(packetBytes)"
scalar ZrpTestNetworkBig.node12.udp packetSent:count 19
attr interpolationmode none
attr recordingmode count
attr source packetSent
attr title "packets sent, count"
scalar ZrpTestNetworkBig.node12.udp packetSent:sum(packetBytes) 538
attr interpolationmode none
attr recordingmode sum(packetBytes)
attr source packetSent
attr title "packets sent, sum(packetBytes)"
scalar ZrpTestNetworkBig.node12.udp passedUpPk:count 67
attr interpolationmode none
attr recordingmode count
attr source packetSentToUpper
attr title "packets passed up, count"
scalar ZrpTestNetworkBig.node12.udp droppedPkWrongPort:count 0
attr interpolationmode none
attr recordingmode count
attr source packetDropReasonIsNoPortFound(packetDropped)
attr title "packets dropped (wrong port), count"
scalar ZrpTestNetworkBig.node12.udp droppedPkBadChecksum:count 0
attr interpolationmode none
attr recordingmode count
attr source packetDropReasonIsIncorrectlyReceived(packetDropped)
attr title "packets dropped (checksum error), count"
par ZrpTestNetworkBig.node12.tcp typename "\"inet.transportlayer.tcp.Tcp\""
par ZrpTestNetworkBig.node12.tcp crcMode "\"declared\""
attr enum declared,computed
par ZrpTestNetworkBig.node12.tcp advertisedWindow 7504
par ZrpTestNetworkBig.node12.tcp delayedAcksEnabled false
par ZrpTestNetworkBig.node12.tcp nagleEnabled true
par ZrpTestNetworkBig.node12.tcp limitedTransmitEnabled false
par ZrpTestNetworkBig.node12.tcp increasedIWEnabled false
par ZrpTestNetworkBig.node12.tcp sackSupport false
par ZrpTestNetworkBig.node12.tcp windowScalingSupport false
par ZrpTestNetworkBig.node12.tcp windowScalingFactor -1
par ZrpTestNetworkBig.node12.tcp timestampSupport false
par ZrpTestNetworkBig.node12.tcp mss 536
par ZrpTestNetworkBig.node12.tcp msl 120s
attr unit s
par ZrpTestNetworkBig.node12.tcp tcpAlgorithmClass "\"TcpReno\""
par ZrpTestNetworkBig.node12.tcp useDataNotification false
par ZrpTestNetworkBig.node12.tcp dupthresh 3
par ZrpTestNetworkBig.node12.tcp initialSsthresh 4294967295
par ZrpTestNetworkBig.node12.tcp stopOperationExtraTime 0s
attr unit s
par ZrpTestNetworkBig.node12.tcp stopOperationTimeout 2s
attr unit s
par ZrpTestNetworkBig.node12.tcp ecnWillingness false
par ZrpTestNetworkBig.node12.tcp dctcpGamma 0.0625
par ZrpTestNetworkBig.node12.tn typename "\"inet.common.MessageDispatcher\""
par ZrpTestNetworkBig.node12.tn displayStringTextFormat "\"processed %p pk (%l)\""
par ZrpTestNetworkBig.node12.tn forwardServiceRegistration true
par ZrpTestNetworkBig.node12.tn forwardProtocolRegistration true
par ZrpTestNetworkBig.node12.app[0] typename "\"sa_zrp.Zrp\""
par ZrpTestNetworkBig.node12.app[0] routingTableModule "\"^.ipv4.routingTable\""
par ZrpTestNetworkBig.node12.app[0] interfaceTableModule "\"ZrpTestNetworkBig.node12.interfaceTable\""
par ZrpTestNetworkBig.node12.app[0] networkProtocolModule "\"^.ipv4.ip\""
par ZrpTestNetworkBig.node12.app[0] udpPort 654
par ZrpTestNetworkBig.node12.app[0] interface "\"wlan0\""
par ZrpTestNetworkBig.node12.app[0] zoneRadius 2
par ZrpTestNetworkBig.node12.app[0] NDP_helloInterval 1s
attr unit s
par ZrpTestNetworkBig.node12.app[0] IARP_updateInterval 2s
attr unit s
par ZrpTestNetworkBig.node12.app[0] linkStateLifetime 5s
attr unit s
par ZrpTestNetworkBig.node12.app[0] debugInterval 5s
attr unit s
par ZrpTestNetworkBig.node12.app[0] brpJitterMax 0.1s
attr unit s
par ZrpTestNetworkBig.node12.app[0] brpCoverageLifetime 30s
attr unit s
par ZrpTestNetworkBig.node12.app[0] ierpRetryInterval 3s
attr unit s
par ZrpTestNetworkBig.node12.app[0] ierpMaxRetries 3
par ZrpTestNetworkBig.node12.at typename "\"inet.common.MessageDispatcher\""
par ZrpTestNetworkBig.node12.at displayStringTextFormat "\"processed %p pk (%l)\""
par ZrpTestNetworkBig.node12.at forwardServiceRegistration true
par ZrpTestNetworkBig.node12.at forwardProtocolRegistration true
par ZrpTestNetworkBig.node12 typename "\"inet.node.inet.ManetRouter\""
par ZrpTestNetworkBig.node12 hasStatus false
par ZrpTestNetworkBig.node12 osgModel "\"\""
par ZrpTestNetworkBig.node12 osgModelColor "\"\""
par ZrpTestNetworkBig.node12 canvasImage "\"\""
par ZrpTestNetworkBig.node12 canvasImageColor "\"\""
par ZrpTestNetworkBig.node12 recordPcap false
par ZrpTestNetworkBig.node12 numPcapRecorders 0
par ZrpTestNetworkBig.node12 numLoInterfaces 1
par ZrpTestNetworkBig.node12 numWlanInterfaces 1
par ZrpTestNetworkBig.node12 numEthInterfaces 0
par ZrpTestNetworkBig.node12 numPppInterfaces 0
par ZrpTestNetworkBig.node12 numTunInterfaces 0
par ZrpTestNetworkBig.node12 numVirtInterfaces 0
par ZrpTestNetworkBig.node12 fcsMode "\"declared\""
attr enum declared,computed
par ZrpTestNetworkBig.node12 hasIpv4 true
par ZrpTestNetworkBig.node12 hasIpv6 false
par ZrpTestNetworkBig.node12 hasGn false
par ZrpTestNetworkBig.node12 forwarding true
par ZrpTestNetworkBig.node12 multicastForwarding false
par ZrpTestNetworkBig.node12 hasUdp true
par ZrpTestNetworkBig.node12 hasTcp true
par ZrpTestNetworkBig.node12 hasSctp false
par ZrpTestNetworkBig.node12 numApps 1
par ZrpTestNetworkBig typename "\"sa_zrp.simulations.ZrpTestBig.ZrpTestNetworkBig\""

