version 3
run Debug-0-20260203-15:45:30-115850
attr configname Debug
attr datetime 20260203-15:45:30
attr datetimef 20260203-154530
attr experiment Debug
attr inifile omnetpp.ini
attr iterationvars ""
attr iterationvarsd ""
attr iterationvarsf ""
attr measurement ""
attr network ZrpTestNetwork
attr processid 115850
attr repetition 0
attr replication #0
attr resultdir results
attr runnumber 0
attr seedset 0
config image-path ../../inet-4.5.4/images
config description "Verbose logging for debugging"
config **.app[0].*.cmdenv-log-level detail
config cmdenv-express-mode false
config *.source.app[1].startTime 20s
config *.source.app[1].sendInterval 2s
config network ZrpTestNetwork
config sim-time-limit 100s
config *.configurator.addStaticRoutes false
config **.netmaskRoutes "\"\""
config **.arp.typename GlobalArp
config **.wlan[*].bitrate 24Mbps
config **.transmitter.power 1mW
config **.constraintAreaMaxX 400m
config **.constraintAreaMaxY 400m
config **.constraintAreaMinX 0m
config **.constraintAreaMinY 0m
config *.*.numApps 1
config *.*.app[0].typename sa_zrp.Zrp
config *.*.app[0].zoneRadius 2
config *.*.app[0].NDP_helloInterval 1s
config *.*.app[0].IARP_updateInterval 2s
config *.*.app[0].linkStateLifetime 5s
config *.*.app[0].interface "\"wlan0\""
config *.source.numApps 2
config *.source.app[1].typename PingApp
config *.source.app[1].destAddr "\"destination\""
config *.source.app[1].startTime 10s
config *.source.app[1].sendInterval 1s
config *.source.app[1].printPing true
config *.visualizer.*.numDataLinkVisualizers 3
config *.visualizer.*.dataLinkVisualizer[*].activityLevel "\"peer\""
config *.visualizer.*.dataLinkVisualizer[*].displayLinks true
config *.visualizer.*.dataLinkVisualizer[0].packetFilter "\"NDP_Hello\""
config *.visualizer.*.dataLinkVisualizer[0].*Color "\"green\""
config *.visualizer.*.dataLinkVisualizer[1].packetFilter "\"IARP_LinkStateUpdate\""
config *.visualizer.*.dataLinkVisualizer[1].*Color "\"orange\""
config *.visualizer.*.dataLinkVisualizer[2].packetFilter "\"ping*\""
config *.visualizer.*.dataLinkVisualizer[2].*Color "\"blue\""
config *.visualizer.*.networkRouteVisualizer[0].displayRoutes true
config *.visualizer.*.networkRouteVisualizer[0].packetFilter "\"*ping*\""
config *.visualizer.*.routingTableVisualizer[0].displayRoutingTables true
config *.visualizer.*.routingTableVisualizer[0].displayLabels false
config *.visualizer.*.routingTableVisualizer[0].displayRoutesIndividually false
config *.visualizer.*.routingTableVisualizer[0].lineShift 0
config *.visualizer.*.interfaceTableVisualizer[0].displayInterfaceTables true
config *.visualizer.*.interfaceTableVisualizer[0].format "\"%a/%l\""

vector 0 ZrpTestNetwork.source.lo[0].lo rcvdPkFromHl:vector(packetBytes) ETV
attr interpolationmode none
attr recordingmode vector(packetBytes)
attr source packetReceivedFromUpper
attr title "packets received from higher layer, packetBytes"
vector 1 ZrpTestNetwork.source.lo[0].lo passedUpPk:vector(packetBytes) ETV
attr interpolationmode none
attr recordingmode vector(packetBytes)
attr source packetSentToUpper
attr title "packets passed to higher layer, packetBytes"
vector 2 ZrpTestNetwork.source.lo[0] packetDropInterfaceDown:vector(packetBytes) ETV
attr interpolationmode none
attr recordingmode vector(packetBytes)
attr source packetDropReasonIsInterfaceDown(packetDropped)
attr title "packet drops: interface down, packetBytes"
vector 3 ZrpTestNetwork.source.lo[0] packetDropNoCarrier:vector(packetBytes) ETV
attr interpolationmode none
attr recordingmode vector(packetBytes)
attr source packetDropReasonIsNoCarrier(packetDropped)
attr title "packet drops: no carrier, packetBytes"
vector 4 ZrpTestNetwork.source.wlan[0].mac.dcf.channelAccess.pendingQueue queueLength:vector ETV
attr autoWarmupFilter false
attr interpolationmode sample-hold
attr recordingmode vector
attr source "warmup(atomic(constant0(packetPushEnded) + count(packetPushStarted) - count(packetPulled) - count(packetRemoved) - count(packetDropped)))"
attr title "queue length"
attr unit pk
vector 5 ZrpTestNetwork.source.wlan[0].mac.dcf.channelAccess.pendingQueue queueBitLength:vector ETV
attr autoWarmupFilter false
attr interpolationmode sample-hold
attr recordingmode vector
attr source "warmup(atomic(constant0(packetPushEnded) + sum(packetLength(packetPushStarted)) - sum(packetLength(packetPulled)) - sum(packetLength(packetRemoved)) - sum(packetLength(packetDropped))))"
attr title "queue bit length"
attr unit b
vector 6 ZrpTestNetwork.source.wlan[0].mac.dcf.channelAccess.pendingQueue queueingTime:vector ETV
attr interpolationmode none
attr recordingmode vector
attr source queueingTime(packetPulled)
attr title "queueing times"
attr unit s
vector 7 ZrpTestNetwork.source.wlan[0].mac.dcf.channelAccess.pendingQueue incomingPacketLengths:vector ETV
attr interpolationmode none
attr recordingmode vector
attr source packetLength(packetPushStarted)
attr title "incoming packet lengths"
attr unit b
vector 8 ZrpTestNetwork.source.wlan[0].mac.dcf.channelAccess.pendingQueue incomingDataRate:vector ETV
attr interpolationmode linear
attr recordingmode vector
attr source throughput(packetPushStarted)
attr title "incoming datarate"
attr unit bps
vector 9 ZrpTestNetwork.source.wlan[0].mac.dcf.channelAccess.pendingQueue outgoingPacketLengths:vector ETV
attr interpolationmode none
attr recordingmode vector
attr source packetLength(packetPulled)
attr title "outgoing packet lengths"
attr unit b
vector 10 ZrpTestNetwork.source.wlan[0].mac.dcf.channelAccess.pendingQueue outgoingDataRate:vector ETV
attr interpolationmode linear
attr recordingmode vector
attr source throughput(packetPulled)
attr title "outgoing datarate"
attr unit bps
vector 11 ZrpTestNetwork.source.wlan[0].mac.dcf.channelAccess.pendingQueue droppedPacketLengthsQueueOverflow:vector ETV
attr interpolationmode none
attr recordingmode vector
attr source packetLength(packetDropReasonIsQueueOverflow(packetDropped))
attr title "dropped packet lengths: queue overflow"
attr unit b
vector 12 ZrpTestNetwork.source.wlan[0].mac.dcf.channelAccess.pendingQueue flowQueueingTime:vector ETV
attr interpolationmode none
attr recordingmode vector
attr source queueingTime(demuxFlow(packetPulled))
attr title "flow queueing times"
attr unit s
vector 13 ZrpTestNetwork.source.wlan[0].mac.dcf.channelAccess.pendingQueue flowIncomingDataRate:vector ETV
attr interpolationmode linear
attr recordingmode vector
attr source throughput(flowPacketLength(demuxFlow(packetPushStarted)))
attr title "flow specific incoming data rate"
attr unit bps
vector 14 ZrpTestNetwork.source.wlan[0].mac.dcf.channelAccess.pendingQueue flowOutgoingDataRate:vector ETV
attr interpolationmode linear
attr recordingmode vector
attr source throughput(flowPacketLength(demuxFlow(packetPulled)))
attr title "flow specific outgoing data rate"
attr unit bps
vector 15 ZrpTestNetwork.source.wlan[0].mac.dcf.channelAccess.inProgressFrames queueingTime:vector ETV
attr interpolationmode none
attr recordingmode vector
attr source queueingTime(packetDequeued)
attr title "queueing times"
vector 16 ZrpTestNetwork.source.wlan[0].mac.dcf.channelAccess.inProgressFrames queueLength:vector ETV
attr autoWarmupFilter false
attr interpolationmode sample-hold
attr recordingmode vector
attr source "warmup(count(packetEnqueued) - count(packetDequeued))"
attr title "queue length"
vector 17 ZrpTestNetwork.source.wlan[0].mac.dcf.channelAccess.contention backoffPeriodGenerated:vector ETV
attr interpolationmode none
attr recordingmode vector
attr title "backoff periods"
vector 18 ZrpTestNetwork.source.wlan[0].mac.dcf.channelAccess.contention backoffActive:vector ETV
attr autoWarmupFilter false
attr interpolationmode sample-hold
attr recordingmode vector
attr source warmup(count(backoffStarted)-count(backoffStopped))
attr title "backoff active"
vector 19 ZrpTestNetwork.source.wlan[0].mac.dcf.channelAccess.contention stateChanged:vector ETV
attr enum IDLE,DEFER,IFS_AND_BACKOFF
attr interpolationmode none
attr recordingmode vector
attr title "contention state changed"
attr type enum
vector 20 ZrpTestNetwork.source.wlan[0].mac.dcf.recipientMacDataService packetDropDuplicateDetected:vector(packetBytes) ETV
attr interpolationmode none
attr recordingmode vector(packetBytes)
attr source packetDropReasonIsDuplicateDetected(packetDropped)
attr title "packet drops: duplicate detected, packetBytes"
vector 21 ZrpTestNetwork.source.wlan[0].mac.dcf.recoveryProcedure contentionWindowChanged:vector ETV
attr interpolationmode sample-hold
attr recordingmode vector
attr title "contention window"
vector 22 ZrpTestNetwork.source.wlan[0].mac.dcf packetSentToPeer:vector(packetBytes) ETV
attr interpolationmode none
attr recordingmode vector(packetBytes)
attr title "packets sent, packetBytes"
vector 23 ZrpTestNetwork.source.wlan[0].mac.dcf packetSentToPeerUnicast:vector(packetBytes) ETV
attr interpolationmode none
attr recordingmode vector(packetBytes)
attr source ieee80211Unicast(packetSentToPeer)
attr title "packets sent: unicast, packetBytes"
vector 24 ZrpTestNetwork.source.wlan[0].mac.dcf packetSentToPeerMulticast:vector(packetBytes) ETV
attr interpolationmode none
attr recordingmode vector(packetBytes)
attr source ieee80211Multicast(packetSentToPeer)
attr title "packets sent: multicast, packetBytes"
vector 25 ZrpTestNetwork.source.wlan[0].mac.dcf packetSentToPeerBroadcast:vector(packetBytes) ETV
attr interpolationmode none
attr recordingmode vector(packetBytes)
attr source ieee80211Broadcast(packetSentToPeer)
attr title "packets sent: broadcast , packetBytes"
vector 26 ZrpTestNetwork.source.wlan[0].mac.dcf packetSentToPeerWithRetry:vector(packetBytes) ETV
attr interpolationmode none
attr recordingmode vector(packetBytes)
attr source ieee80211Retry(packetSentToPeer)
attr title "packets sent: with retry, packetBytes"
vector 27 ZrpTestNetwork.source.wlan[0].mac.dcf packetSentToPeerWithoutRetry:vector(packetBytes) ETV
attr interpolationmode none
attr recordingmode vector(packetBytes)
attr source ieee80211NotRetry(packetSentToPeer)
attr title "packets sent: without retry, packetBytes"
vector 28 ZrpTestNetwork.source.wlan[0].mac.dcf packetReceivedFromPeer:vector(packetBytes) ETV
attr interpolationmode none
attr recordingmode vector(packetBytes)
attr title "packets received, packetBytes"
vector 29 ZrpTestNetwork.source.wlan[0].mac.dcf packetReceivedFromPeerUnicast:vector(packetBytes) ETV
attr interpolationmode none
attr recordingmode vector(packetBytes)
attr source ieee80211Unicast(packetReceivedFromPeer)
attr title "packets received: unicast, packetBytes"
vector 30 ZrpTestNetwork.source.wlan[0].mac.dcf packetReceivedFromPeerMulticast:vector(packetBytes) ETV
attr interpolationmode none
attr recordingmode vector(packetBytes)
attr source ieee80211Multicast(packetReceivedFromPeer)
attr title "packets received: multicast, packetBytes"
vector 31 ZrpTestNetwork.source.wlan[0].mac.dcf packetReceivedFromPeerBroadcast:vector(packetBytes) ETV
attr interpolationmode none
attr recordingmode vector(packetBytes)
attr source ieee80211Broadcast(packetReceivedFromPeer)
attr title "packets received: broadcast, packetBytes"
vector 32 ZrpTestNetwork.source.wlan[0].mac.dcf packetReceivedFromPeerWithRetry:vector(packetBytes) ETV
attr interpolationmode none
attr recordingmode vector(packetBytes)
attr source ieee80211Retry(packetReceivedFromPeer)
attr title "packets received: with retry, packetBytes"
vector 33 ZrpTestNetwork.source.wlan[0].mac.dcf packetReceivedFromPeerWithoutRetry:vector(packetBytes) ETV
attr interpolationmode none
attr recordingmode vector(packetBytes)
attr source ieee80211NotRetry(packetReceivedFromPeer)
attr title "packets received: without retry, packetBytes"
vector 34 ZrpTestNetwork.source.wlan[0].mac.dcf packetDrop:vector(packetBytes) ETV
attr interpolationmode none
attr recordingmode vector(packetBytes)
attr source packetDropped
attr title "packet drops, packetBytes"
vector 35 ZrpTestNetwork.source.wlan[0].mac.dcf packetDropNotAddressedToUs:vector(packetBytes) ETV
attr interpolationmode none
attr recordingmode vector(packetBytes)
attr source packetDropReasonIsNotAddressedToUs(packetDropped)
attr title "packet drops: not addressed to us, packetBytes"
vector 36 ZrpTestNetwork.source.wlan[0].mac.dcf packetDropQueueOverflow:vector(packetBytes) ETV
attr interpolationmode none
attr recordingmode vector(packetBytes)
attr source packetDropReasonIsQueueOverflow(packetDropped)
attr title "packet drops: queue overflow, packetBytes"
vector 37 ZrpTestNetwork.source.wlan[0].mac.dcf packetDropRetryLimitReached:vector(packetBytes) ETV
attr interpolationmode none
attr recordingmode vector(packetBytes)
attr source packetDropReasonIsRetryLimitReached(packetDropped)
attr title "packet drops: retry limit reached, packetBytes"
vector 38 ZrpTestNetwork.source.wlan[0].mac.dcf frameSequenceActive:vector ETV
attr autoWarmupFilter false
attr interpolationmode sample-hold
attr recordingmode vector
attr source warmup(count(frameSequenceStarted)-count(frameSequenceFinished))
attr title "frame sequence active"
vector 39 ZrpTestNetwork.source.wlan[0].mac.dcf datarateSelected:vector ETV
attr interpolationmode none
attr recordingmode vector
attr title "datarates selected"
vector 40 ZrpTestNetwork.source.wlan[0].mac.rx nav:vector ETV
attr interpolationmode linear
attr recordingmode vector
attr source navChanged
attr title "network allocation vector"
vector 41 ZrpTestNetwork.source.wlan[0].mac packetSentToUpper:vector(packetBytes) ETV
attr interpolationmode none
attr recordingmode vector(packetBytes)
attr title "packets sent to upper layer, packetBytes"
vector 42 ZrpTestNetwork.source.wlan[0].mac packetSentToLower:vector(packetBytes) ETV
attr interpolationmode none
attr recordingmode vector(packetBytes)
attr title "packets sent to lower layer, packetBytes"
vector 43 ZrpTestNetwork.source.wlan[0].mac packetReceivedFromUpper:vector(packetBytes) ETV
attr interpolationmode none
attr recordingmode vector(packetBytes)
attr title "packets received from upper layer, packetBytes"
vector 44 ZrpTestNetwork.source.wlan[0].mac packetReceivedFromLower:vector(packetBytes) ETV
attr interpolationmode none
attr recordingmode vector(packetBytes)
attr title "packets received from lower layer, packetBytes"
vector 45 ZrpTestNetwork.source.wlan[0].mac packetDrop:vector(packetBytes) ETV
attr interpolationmode none
attr recordingmode vector(packetBytes)
attr source packetDropped
attr title "packet drops, packetBytes"
vector 46 ZrpTestNetwork.source.wlan[0].mac packetDropIncorrectlyReceived:vector(packetBytes) ETV
attr interpolationmode none
attr recordingmode vector(packetBytes)
attr source packetDropReasonIsIncorrectlyReceived(packetDropped)
attr title "packet drops: incorrectly received, packetBytes"
vector 47 ZrpTestNetwork.source.wlan[0].mac packetDropNotAddressedToUs:vector(packetBytes) ETV
attr interpolationmode none
attr recordingmode vector(packetBytes)
attr source packetDropReasonIsNotAddressedToUs(packetDropped)
attr title "packet drops: not addressed to us, packetBytes"
vector 48 ZrpTestNetwork.source.wlan[0].mac packetDropQueueOverflow:vector(packetBytes) ETV
attr interpolationmode none
attr recordingmode vector(packetBytes)
attr source packetDropReasonIsQueueOverflow(packetDropped)
attr title "packet drops: queue overflow, packetBytes"
vector 49 ZrpTestNetwork.source.wlan[0].mac packetDropRetryLimitReached:vector(packetBytes) ETV
attr interpolationmode none
attr recordingmode vector(packetBytes)
attr source packetDropReasonIsRetryLimitReached(packetDropped)
attr title "packet drops: retry limit reached, packetBytes"
vector 50 ZrpTestNetwork.source.wlan[0].mac packetDropDuplicateDetected:vector(packetBytes) ETV
attr interpolationmode none
attr recordingmode vector(packetBytes)
attr source packetDropReasonIsDuplicateDetected(packetDropped)
attr title "packet drops: duplicate detected, packetBytes"
vector 51 ZrpTestNetwork.source.wlan[0].mac packetDropOther:vector(packetBytes) ETV
attr interpolationmode none
attr recordingmode vector(packetBytes)
attr source packetDropReasonIsOther(packetDropped)
attr title "packet drops: other, packetBytes"
vector 52 ZrpTestNetwork.source.wlan[0].radio radioMode:vector ETV
attr interpolationmode sample-hold
attr recordingmode vector
attr source radioModeChanged
attr title "Radio mode"
vector 53 ZrpTestNetwork.source.wlan[0].radio receptionState:vector ETV
attr interpolationmode sample-hold
attr recordingmode vector
attr source receptionStateChanged
attr title "Radio reception state"
vector 54 ZrpTestNetwork.source.wlan[0].radio transmissionState:vector ETV
attr interpolationmode sample-hold
attr recordingmode vector
attr source transmissionStateChanged
attr title "Radio transmission state"
vector 55 ZrpTestNetwork.source.wlan[0].radio radioChannel:vector ETV
attr interpolationmode sample-hold
attr recordingmode vector
attr source radioChannelChanged
attr title "Radio channel"
vector 56 ZrpTestNetwork.source.wlan[0] packetDropInterfaceDown:vector(packetBytes) ETV
attr interpolationmode none
attr recordingmode vector(packetBytes)
attr source packetDropReasonIsInterfaceDown(packetDropped)
attr title "packet drops: interface down, packetBytes"
vector 57 ZrpTestNetwork.source.wlan[0] packetDropNoCarrier:vector(packetBytes) ETV
attr interpolationmode none
attr recordingmode vector(packetBytes)
attr source packetDropReasonIsNoCarrier(packetDropped)
attr title "packet drops: no carrier, packetBytes"
vector 58 ZrpTestNetwork.source.ipv4.ip packetDropAddressResolutionFailed:vector(packetBytes) ETV
attr interpolationmode none
attr recordingmode vector(packetBytes)
attr source packetDropReasonIsAddressResolutionFailed(packetDropped)
attr title "packet drop: address resolution failed, packetBytes"
vector 59 ZrpTestNetwork.source.ipv4.ip packetDropHopLimitReached:vector(packetBytes) ETV
attr interpolationmode none
attr recordingmode vector(packetBytes)
attr source packetDropReasonIsHopLimitReached(packetDropped)
attr title "packet drop: hop limit reached, packetBytes"
vector 60 ZrpTestNetwork.source.ipv4.ip packetDropForwardingDisabled:vector(packetBytes) ETV
attr interpolationmode none
attr recordingmode vector(packetBytes)
attr source packetDropReasonIsForwardingDisabled(packetDropped)
attr title "packet drop: forwarding disabled, packetBytes"
vector 61 ZrpTestNetwork.source.ipv4.ip packetDropNoInterfaceFound:vector(packetBytes) ETV
attr interpolationmode none
attr recordingmode vector(packetBytes)
attr source packetDropReasonIsNoInterfaceFound(packetDropped)
attr title "packet drop: no interface found, packetBytes"
vector 62 ZrpTestNetwork.source.ipv4.ip packetDropNoRouteFound:vector(packetBytes) ETV
attr interpolationmode none
attr recordingmode vector(packetBytes)
attr source packetDropReasonIsNoRouteFound(packetDropped)
attr title "packet drop: no route found, packetBytes"
vector 63 ZrpTestNetwork.source.ipv4.ip packetDropUndefined:vector(packetBytes) ETV
attr interpolationmode none
attr recordingmode vector(packetBytes)
attr source packetDropReasonIsUndefined(packetDropped)
attr title "packet drop: undefined, packetBytes"
vector 64 ZrpTestNetwork.source.udp packetSent:vector(packetBytes) ETV
attr interpolationmode none
attr recordingmode vector(packetBytes)
attr source packetSent
attr title "packets sent, packetBytes"
vector 65 ZrpTestNetwork.source.udp packetReceived:vector(packetBytes) ETV
attr interpolationmode none
attr recordingmode vector(packetBytes)
attr source packetReceived
attr title "packets received, packetBytes"
vector 66 ZrpTestNetwork.source.udp passedUpPk:vector(count) ETV
attr interpolationmode none
attr recordingmode vector(count)
attr source packetSentToUpper
attr title "packets passed up, count"
vector 67 ZrpTestNetwork.source.udp droppedPkWrongPort:vector(count) ETV
attr interpolationmode none
attr recordingmode vector(count)
attr source packetDropReasonIsNoPortFound(packetDropped)
attr title "packets dropped (wrong port), count"
vector 68 ZrpTestNetwork.source.udp droppedPkBadChecksum:vector(count) ETV
attr interpolationmode none
attr recordingmode vector(count)
attr source packetDropReasonIsIncorrectlyReceived(packetDropped)
attr title "packets dropped (checksum error), count"
vector 69 ZrpTestNetwork.destination.lo[0].lo rcvdPkFromHl:vector(packetBytes) ETV
attr interpolationmode none
attr recordingmode vector(packetBytes)
attr source packetReceivedFromUpper
attr title "packets received from higher layer, packetBytes"
vector 70 ZrpTestNetwork.destination.lo[0].lo passedUpPk:vector(packetBytes) ETV
attr interpolationmode none
attr recordingmode vector(packetBytes)
attr source packetSentToUpper
attr title "packets passed to higher layer, packetBytes"
vector 71 ZrpTestNetwork.destination.lo[0] packetDropInterfaceDown:vector(packetBytes) ETV
attr interpolationmode none
attr recordingmode vector(packetBytes)
attr source packetDropReasonIsInterfaceDown(packetDropped)
attr title "packet drops: interface down, packetBytes"
vector 72 ZrpTestNetwork.destination.lo[0] packetDropNoCarrier:vector(packetBytes) ETV
attr interpolationmode none
attr recordingmode vector(packetBytes)
attr source packetDropReasonIsNoCarrier(packetDropped)
attr title "packet drops: no carrier, packetBytes"
vector 73 ZrpTestNetwork.destination.wlan[0].mac.dcf.channelAccess.pendingQueue queueLength:vector ETV
attr autoWarmupFilter false
attr interpolationmode sample-hold
attr recordingmode vector
attr source "warmup(atomic(constant0(packetPushEnded) + count(packetPushStarted) - count(packetPulled) - count(packetRemoved) - count(packetDropped)))"
attr title "queue length"
attr unit pk
vector 74 ZrpTestNetwork.destination.wlan[0].mac.dcf.channelAccess.pendingQueue queueBitLength:vector ETV
attr autoWarmupFilter false
attr interpolationmode sample-hold
attr recordingmode vector
attr source "warmup(atomic(constant0(packetPushEnded) + sum(packetLength(packetPushStarted)) - sum(packetLength(packetPulled)) - sum(packetLength(packetRemoved)) - sum(packetLength(packetDropped))))"
attr title "queue bit length"
attr unit b
vector 75 ZrpTestNetwork.destination.wlan[0].mac.dcf.channelAccess.pendingQueue queueingTime:vector ETV
attr interpolationmode none
attr recordingmode vector
attr source queueingTime(packetPulled)
attr title "queueing times"
attr unit s
vector 76 ZrpTestNetwork.destination.wlan[0].mac.dcf.channelAccess.pendingQueue incomingPacketLengths:vector ETV
attr interpolationmode none
attr recordingmode vector
attr source packetLength(packetPushStarted)
attr title "incoming packet lengths"
attr unit b
vector 77 ZrpTestNetwork.destination.wlan[0].mac.dcf.channelAccess.pendingQueue incomingDataRate:vector ETV
attr interpolationmode linear
attr recordingmode vector
attr source throughput(packetPushStarted)
attr title "incoming datarate"
attr unit bps
vector 78 ZrpTestNetwork.destination.wlan[0].mac.dcf.channelAccess.pendingQueue outgoingPacketLengths:vector ETV
attr interpolationmode none
attr recordingmode vector
attr source packetLength(packetPulled)
attr title "outgoing packet lengths"
attr unit b
vector 79 ZrpTestNetwork.destination.wlan[0].mac.dcf.channelAccess.pendingQueue outgoingDataRate:vector ETV
attr interpolationmode linear
attr recordingmode vector
attr source throughput(packetPulled)
attr title "outgoing datarate"
attr unit bps
vector 80 ZrpTestNetwork.destination.wlan[0].mac.dcf.channelAccess.pendingQueue droppedPacketLengthsQueueOverflow:vector ETV
attr interpolationmode none
attr recordingmode vector
attr source packetLength(packetDropReasonIsQueueOverflow(packetDropped))
attr title "dropped packet lengths: queue overflow"
attr unit b
vector 81 ZrpTestNetwork.destination.wlan[0].mac.dcf.channelAccess.pendingQueue flowQueueingTime:vector ETV
attr interpolationmode none
attr recordingmode vector
attr source queueingTime(demuxFlow(packetPulled))
attr title "flow queueing times"
attr unit s
vector 82 ZrpTestNetwork.destination.wlan[0].mac.dcf.channelAccess.pendingQueue flowIncomingDataRate:vector ETV
attr interpolationmode linear
attr recordingmode vector
attr source throughput(flowPacketLength(demuxFlow(packetPushStarted)))
attr title "flow specific incoming data rate"
attr unit bps
vector 83 ZrpTestNetwork.destination.wlan[0].mac.dcf.channelAccess.pendingQueue flowOutgoingDataRate:vector ETV
attr interpolationmode linear
attr recordingmode vector
attr source throughput(flowPacketLength(demuxFlow(packetPulled)))
attr title "flow specific outgoing data rate"
attr unit bps
vector 84 ZrpTestNetwork.destination.wlan[0].mac.dcf.channelAccess.inProgressFrames queueingTime:vector ETV
attr interpolationmode none
attr recordingmode vector
attr source queueingTime(packetDequeued)
attr title "queueing times"
vector 85 ZrpTestNetwork.destination.wlan[0].mac.dcf.channelAccess.inProgressFrames queueLength:vector ETV
attr autoWarmupFilter false
attr interpolationmode sample-hold
attr recordingmode vector
attr source "warmup(count(packetEnqueued) - count(packetDequeued))"
attr title "queue length"
vector 86 ZrpTestNetwork.destination.wlan[0].mac.dcf.channelAccess.contention backoffPeriodGenerated:vector ETV
attr interpolationmode none
attr recordingmode vector
attr title "backoff periods"
vector 87 ZrpTestNetwork.destination.wlan[0].mac.dcf.channelAccess.contention backoffActive:vector ETV
attr autoWarmupFilter false
attr interpolationmode sample-hold
attr recordingmode vector
attr source warmup(count(backoffStarted)-count(backoffStopped))
attr title "backoff active"
vector 88 ZrpTestNetwork.destination.wlan[0].mac.dcf.channelAccess.contention stateChanged:vector ETV
attr enum IDLE,DEFER,IFS_AND_BACKOFF
attr interpolationmode none
attr recordingmode vector
attr title "contention state changed"
attr type enum
vector 89 ZrpTestNetwork.destination.wlan[0].mac.dcf.recipientMacDataService packetDropDuplicateDetected:vector(packetBytes) ETV
attr interpolationmode none
attr recordingmode vector(packetBytes)
attr source packetDropReasonIsDuplicateDetected(packetDropped)
attr title "packet drops: duplicate detected, packetBytes"
vector 90 ZrpTestNetwork.destination.wlan[0].mac.dcf.recoveryProcedure contentionWindowChanged:vector ETV
attr interpolationmode sample-hold
attr recordingmode vector
attr title "contention window"
vector 91 ZrpTestNetwork.destination.wlan[0].mac.dcf packetSentToPeer:vector(packetBytes) ETV
attr interpolationmode none
attr recordingmode vector(packetBytes)
attr title "packets sent, packetBytes"
vector 92 ZrpTestNetwork.destination.wlan[0].mac.dcf packetSentToPeerUnicast:vector(packetBytes) ETV
attr interpolationmode none
attr recordingmode vector(packetBytes)
attr source ieee80211Unicast(packetSentToPeer)
attr title "packets sent: unicast, packetBytes"
vector 93 ZrpTestNetwork.destination.wlan[0].mac.dcf packetSentToPeerMulticast:vector(packetBytes) ETV
attr interpolationmode none
attr recordingmode vector(packetBytes)
attr source ieee80211Multicast(packetSentToPeer)
attr title "packets sent: multicast, packetBytes"
vector 94 ZrpTestNetwork.destination.wlan[0].mac.dcf packetSentToPeerBroadcast:vector(packetBytes) ETV
attr interpolationmode none
attr recordingmode vector(packetBytes)
attr source ieee80211Broadcast(packetSentToPeer)
attr title "packets sent: broadcast , packetBytes"
vector 95 ZrpTestNetwork.destination.wlan[0].mac.dcf packetSentToPeerWithRetry:vector(packetBytes) ETV
attr interpolationmode none
attr recordingmode vector(packetBytes)
attr source ieee80211Retry(packetSentToPeer)
attr title "packets sent: with retry, packetBytes"
vector 96 ZrpTestNetwork.destination.wlan[0].mac.dcf packetSentToPeerWithoutRetry:vector(packetBytes) ETV
attr interpolationmode none
attr recordingmode vector(packetBytes)
attr source ieee80211NotRetry(packetSentToPeer)
attr title "packets sent: without retry, packetBytes"
vector 97 ZrpTestNetwork.destination.wlan[0].mac.dcf packetReceivedFromPeer:vector(packetBytes) ETV
attr interpolationmode none
attr recordingmode vector(packetBytes)
attr title "packets received, packetBytes"
vector 98 ZrpTestNetwork.destination.wlan[0].mac.dcf packetReceivedFromPeerUnicast:vector(packetBytes) ETV
attr interpolationmode none
attr recordingmode vector(packetBytes)
attr source ieee80211Unicast(packetReceivedFromPeer)
attr title "packets received: unicast, packetBytes"
vector 99 ZrpTestNetwork.destination.wlan[0].mac.dcf packetReceivedFromPeerMulticast:vector(packetBytes) ETV
attr interpolationmode none
attr recordingmode vector(packetBytes)
attr source ieee80211Multicast(packetReceivedFromPeer)
attr title "packets received: multicast, packetBytes"
vector 100 ZrpTestNetwork.destination.wlan[0].mac.dcf packetReceivedFromPeerBroadcast:vector(packetBytes) ETV
attr interpolationmode none
attr recordingmode vector(packetBytes)
attr source ieee80211Broadcast(packetReceivedFromPeer)
attr title "packets received: broadcast, packetBytes"
vector 101 ZrpTestNetwork.destination.wlan[0].mac.dcf packetReceivedFromPeerWithRetry:vector(packetBytes) ETV
attr interpolationmode none
attr recordingmode vector(packetBytes)
attr source ieee80211Retry(packetReceivedFromPeer)
attr title "packets received: with retry, packetBytes"
vector 102 ZrpTestNetwork.destination.wlan[0].mac.dcf packetReceivedFromPeerWithoutRetry:vector(packetBytes) ETV
attr interpolationmode none
attr recordingmode vector(packetBytes)
attr source ieee80211NotRetry(packetReceivedFromPeer)
attr title "packets received: without retry, packetBytes"
vector 103 ZrpTestNetwork.destination.wlan[0].mac.dcf packetDrop:vector(packetBytes) ETV
attr interpolationmode none
attr recordingmode vector(packetBytes)
attr source packetDropped
attr title "packet drops, packetBytes"
vector 104 ZrpTestNetwork.destination.wlan[0].mac.dcf packetDropNotAddressedToUs:vector(packetBytes) ETV
attr interpolationmode none
attr recordingmode vector(packetBytes)
attr source packetDropReasonIsNotAddressedToUs(packetDropped)
attr title "packet drops: not addressed to us, packetBytes"
vector 105 ZrpTestNetwork.destination.wlan[0].mac.dcf packetDropQueueOverflow:vector(packetBytes) ETV
attr interpolationmode none
attr recordingmode vector(packetBytes)
attr source packetDropReasonIsQueueOverflow(packetDropped)
attr title "packet drops: queue overflow, packetBytes"
vector 106 ZrpTestNetwork.destination.wlan[0].mac.dcf packetDropRetryLimitReached:vector(packetBytes) ETV
attr interpolationmode none
attr recordingmode vector(packetBytes)
attr source packetDropReasonIsRetryLimitReached(packetDropped)
attr title "packet drops: retry limit reached, packetBytes"
vector 107 ZrpTestNetwork.destination.wlan[0].mac.dcf frameSequenceActive:vector ETV
attr autoWarmupFilter false
attr interpolationmode sample-hold
attr recordingmode vector
attr source warmup(count(frameSequenceStarted)-count(frameSequenceFinished))
attr title "frame sequence active"
vector 108 ZrpTestNetwork.destination.wlan[0].mac.dcf datarateSelected:vector ETV
attr interpolationmode none
attr recordingmode vector
attr title "datarates selected"
vector 109 ZrpTestNetwork.destination.wlan[0].mac.rx nav:vector ETV
attr interpolationmode linear
attr recordingmode vector
attr source navChanged
attr title "network allocation vector"
vector 110 ZrpTestNetwork.destination.wlan[0].mac packetSentToUpper:vector(packetBytes) ETV
attr interpolationmode none
attr recordingmode vector(packetBytes)
attr title "packets sent to upper layer, packetBytes"
vector 111 ZrpTestNetwork.destination.wlan[0].mac packetSentToLower:vector(packetBytes) ETV
attr interpolationmode none
attr recordingmode vector(packetBytes)
attr title "packets sent to lower layer, packetBytes"
vector 112 ZrpTestNetwork.destination.wlan[0].mac packetReceivedFromUpper:vector(packetBytes) ETV
attr interpolationmode none
attr recordingmode vector(packetBytes)
attr title "packets received from upper layer, packetBytes"
vector 113 ZrpTestNetwork.destination.wlan[0].mac packetReceivedFromLower:vector(packetBytes) ETV
attr interpolationmode none
attr recordingmode vector(packetBytes)
attr title "packets received from lower layer, packetBytes"
vector 114 ZrpTestNetwork.destination.wlan[0].mac packetDrop:vector(packetBytes) ETV
attr interpolationmode none
attr recordingmode vector(packetBytes)
attr source packetDropped
attr title "packet drops, packetBytes"
vector 115 ZrpTestNetwork.destination.wlan[0].mac packetDropIncorrectlyReceived:vector(packetBytes) ETV
attr interpolationmode none
attr recordingmode vector(packetBytes)
attr source packetDropReasonIsIncorrectlyReceived(packetDropped)
attr title "packet drops: incorrectly received, packetBytes"
vector 116 ZrpTestNetwork.destination.wlan[0].mac packetDropNotAddressedToUs:vector(packetBytes) ETV
attr interpolationmode none
attr recordingmode vector(packetBytes)
attr source packetDropReasonIsNotAddressedToUs(packetDropped)
attr title "packet drops: not addressed to us, packetBytes"
vector 117 ZrpTestNetwork.destination.wlan[0].mac packetDropQueueOverflow:vector(packetBytes) ETV
attr interpolationmode none
attr recordingmode vector(packetBytes)
attr source packetDropReasonIsQueueOverflow(packetDropped)
attr title "packet drops: queue overflow, packetBytes"
vector 118 ZrpTestNetwork.destination.wlan[0].mac packetDropRetryLimitReached:vector(packetBytes) ETV
attr interpolationmode none
attr recordingmode vector(packetBytes)
attr source packetDropReasonIsRetryLimitReached(packetDropped)
attr title "packet drops: retry limit reached, packetBytes"
vector 119 ZrpTestNetwork.destination.wlan[0].mac packetDropDuplicateDetected:vector(packetBytes) ETV
attr interpolationmode none
attr recordingmode vector(packetBytes)
attr source packetDropReasonIsDuplicateDetected(packetDropped)
attr title "packet drops: duplicate detected, packetBytes"
vector 120 ZrpTestNetwork.destination.wlan[0].mac packetDropOther:vector(packetBytes) ETV
attr interpolationmode none
attr recordingmode vector(packetBytes)
attr source packetDropReasonIsOther(packetDropped)
attr title "packet drops: other, packetBytes"
vector 121 ZrpTestNetwork.destination.wlan[0].radio radioMode:vector ETV
attr interpolationmode sample-hold
attr recordingmode vector
attr source radioModeChanged
attr title "Radio mode"
vector 122 ZrpTestNetwork.destination.wlan[0].radio receptionState:vector ETV
attr interpolationmode sample-hold
attr recordingmode vector
attr source receptionStateChanged
attr title "Radio reception state"
vector 123 ZrpTestNetwork.destination.wlan[0].radio transmissionState:vector ETV
attr interpolationmode sample-hold
attr recordingmode vector
attr source transmissionStateChanged
attr title "Radio transmission state"
vector 124 ZrpTestNetwork.destination.wlan[0].radio radioChannel:vector ETV
attr interpolationmode sample-hold
attr recordingmode vector
attr source radioChannelChanged
attr title "Radio channel"
vector 125 ZrpTestNetwork.destination.wlan[0] packetDropInterfaceDown:vector(packetBytes) ETV
attr interpolationmode none
attr recordingmode vector(packetBytes)
attr source packetDropReasonIsInterfaceDown(packetDropped)
attr title "packet drops: interface down, packetBytes"
vector 126 ZrpTestNetwork.destination.wlan[0] packetDropNoCarrier:vector(packetBytes) ETV
attr interpolationmode none
attr recordingmode vector(packetBytes)
attr source packetDropReasonIsNoCarrier(packetDropped)
attr title "packet drops: no carrier, packetBytes"
vector 127 ZrpTestNetwork.destination.ipv4.ip packetDropAddressResolutionFailed:vector(packetBytes) ETV
attr interpolationmode none
attr recordingmode vector(packetBytes)
attr source packetDropReasonIsAddressResolutionFailed(packetDropped)
attr title "packet drop: address resolution failed, packetBytes"
vector 128 ZrpTestNetwork.destination.ipv4.ip packetDropHopLimitReached:vector(packetBytes) ETV
attr interpolationmode none
attr recordingmode vector(packetBytes)
attr source packetDropReasonIsHopLimitReached(packetDropped)
attr title "packet drop: hop limit reached, packetBytes"
vector 129 ZrpTestNetwork.destination.ipv4.ip packetDropForwardingDisabled:vector(packetBytes) ETV
attr interpolationmode none
attr recordingmode vector(packetBytes)
attr source packetDropReasonIsForwardingDisabled(packetDropped)
attr title "packet drop: forwarding disabled, packetBytes"
vector 130 ZrpTestNetwork.destination.ipv4.ip packetDropNoInterfaceFound:vector(packetBytes) ETV
attr interpolationmode none
attr recordingmode vector(packetBytes)
attr source packetDropReasonIsNoInterfaceFound(packetDropped)
attr title "packet drop: no interface found, packetBytes"
vector 131 ZrpTestNetwork.destination.ipv4.ip packetDropNoRouteFound:vector(packetBytes) ETV
attr interpolationmode none
attr recordingmode vector(packetBytes)
attr source packetDropReasonIsNoRouteFound(packetDropped)
attr title "packet drop: no route found, packetBytes"
vector 132 ZrpTestNetwork.destination.ipv4.ip packetDropUndefined:vector(packetBytes) ETV
attr interpolationmode none
attr recordingmode vector(packetBytes)
attr source packetDropReasonIsUndefined(packetDropped)
attr title "packet drop: undefined, packetBytes"
vector 133 ZrpTestNetwork.destination.udp packetSent:vector(packetBytes) ETV
attr interpolationmode none
attr recordingmode vector(packetBytes)
attr source packetSent
attr title "packets sent, packetBytes"
vector 134 ZrpTestNetwork.destination.udp packetReceived:vector(packetBytes) ETV
attr interpolationmode none
attr recordingmode vector(packetBytes)
attr source packetReceived
attr title "packets received, packetBytes"
vector 135 ZrpTestNetwork.destination.udp passedUpPk:vector(count) ETV
attr interpolationmode none
attr recordingmode vector(count)
attr source packetSentToUpper
attr title "packets passed up, count"
vector 136 ZrpTestNetwork.destination.udp droppedPkWrongPort:vector(count) ETV
attr interpolationmode none
attr recordingmode vector(count)
attr source packetDropReasonIsNoPortFound(packetDropped)
attr title "packets dropped (wrong port), count"
vector 137 ZrpTestNetwork.destination.udp droppedPkBadChecksum:vector(count) ETV
attr interpolationmode none
attr recordingmode vector(count)
attr source packetDropReasonIsIncorrectlyReceived(packetDropped)
attr title "packets dropped (checksum error), count"
vector 138 ZrpTestNetwork.node1.lo[0].lo rcvdPkFromHl:vector(packetBytes) ETV
attr interpolationmode none
attr recordingmode vector(packetBytes)
attr source packetReceivedFromUpper
attr title "packets received from higher layer, packetBytes"
vector 139 ZrpTestNetwork.node1.lo[0].lo passedUpPk:vector(packetBytes) ETV
attr interpolationmode none
attr recordingmode vector(packetBytes)
attr source packetSentToUpper
attr title "packets passed to higher layer, packetBytes"
vector 140 ZrpTestNetwork.node1.lo[0] packetDropInterfaceDown:vector(packetBytes) ETV
attr interpolationmode none
attr recordingmode vector(packetBytes)
attr source packetDropReasonIsInterfaceDown(packetDropped)
attr title "packet drops: interface down, packetBytes"
vector 141 ZrpTestNetwork.node1.lo[0] packetDropNoCarrier:vector(packetBytes) ETV
attr interpolationmode none
attr recordingmode vector(packetBytes)
attr source packetDropReasonIsNoCarrier(packetDropped)
attr title "packet drops: no carrier, packetBytes"
vector 142 ZrpTestNetwork.node1.wlan[0].mac.dcf.channelAccess.pendingQueue queueLength:vector ETV
attr autoWarmupFilter false
attr interpolationmode sample-hold
attr recordingmode vector
attr source "warmup(atomic(constant0(packetPushEnded) + count(packetPushStarted) - count(packetPulled) - count(packetRemoved) - count(packetDropped)))"
attr title "queue length"
attr unit pk
vector 143 ZrpTestNetwork.node1.wlan[0].mac.dcf.channelAccess.pendingQueue queueBitLength:vector ETV
attr autoWarmupFilter false
attr interpolationmode sample-hold
attr recordingmode vector
attr source "warmup(atomic(constant0(packetPushEnded) + sum(packetLength(packetPushStarted)) - sum(packetLength(packetPulled)) - sum(packetLength(packetRemoved)) - sum(packetLength(packetDropped))))"
attr title "queue bit length"
attr unit b
vector 144 ZrpTestNetwork.node1.wlan[0].mac.dcf.channelAccess.pendingQueue queueingTime:vector ETV
attr interpolationmode none
attr recordingmode vector
attr source queueingTime(packetPulled)
attr title "queueing times"
attr unit s
vector 145 ZrpTestNetwork.node1.wlan[0].mac.dcf.channelAccess.pendingQueue incomingPacketLengths:vector ETV
attr interpolationmode none
attr recordingmode vector
attr source packetLength(packetPushStarted)
attr title "incoming packet lengths"
attr unit b
vector 146 ZrpTestNetwork.node1.wlan[0].mac.dcf.channelAccess.pendingQueue incomingDataRate:vector ETV
attr interpolationmode linear
attr recordingmode vector
attr source throughput(packetPushStarted)
attr title "incoming datarate"
attr unit bps
vector 147 ZrpTestNetwork.node1.wlan[0].mac.dcf.channelAccess.pendingQueue outgoingPacketLengths:vector ETV
attr interpolationmode none
attr recordingmode vector
attr source packetLength(packetPulled)
attr title "outgoing packet lengths"
attr unit b
vector 148 ZrpTestNetwork.node1.wlan[0].mac.dcf.channelAccess.pendingQueue outgoingDataRate:vector ETV
attr interpolationmode linear
attr recordingmode vector
attr source throughput(packetPulled)
attr title "outgoing datarate"
attr unit bps
vector 149 ZrpTestNetwork.node1.wlan[0].mac.dcf.channelAccess.pendingQueue droppedPacketLengthsQueueOverflow:vector ETV
attr interpolationmode none
attr recordingmode vector
attr source packetLength(packetDropReasonIsQueueOverflow(packetDropped))
attr title "dropped packet lengths: queue overflow"
attr unit b
vector 150 ZrpTestNetwork.node1.wlan[0].mac.dcf.channelAccess.pendingQueue flowQueueingTime:vector ETV
attr interpolationmode none
attr recordingmode vector
attr source queueingTime(demuxFlow(packetPulled))
attr title "flow queueing times"
attr unit s
vector 151 ZrpTestNetwork.node1.wlan[0].mac.dcf.channelAccess.pendingQueue flowIncomingDataRate:vector ETV
attr interpolationmode linear
attr recordingmode vector
attr source throughput(flowPacketLength(demuxFlow(packetPushStarted)))
attr title "flow specific incoming data rate"
attr unit bps
vector 152 ZrpTestNetwork.node1.wlan[0].mac.dcf.channelAccess.pendingQueue flowOutgoingDataRate:vector ETV
attr interpolationmode linear
attr recordingmode vector
attr source throughput(flowPacketLength(demuxFlow(packetPulled)))
attr title "flow specific outgoing data rate"
attr unit bps
vector 153 ZrpTestNetwork.node1.wlan[0].mac.dcf.channelAccess.inProgressFrames queueingTime:vector ETV
attr interpolationmode none
attr recordingmode vector
attr source queueingTime(packetDequeued)
attr title "queueing times"
vector 154 ZrpTestNetwork.node1.wlan[0].mac.dcf.channelAccess.inProgressFrames queueLength:vector ETV
attr autoWarmupFilter false
attr interpolationmode sample-hold
attr recordingmode vector
attr source "warmup(count(packetEnqueued) - count(packetDequeued))"
attr title "queue length"
vector 155 ZrpTestNetwork.node1.wlan[0].mac.dcf.channelAccess.contention backoffPeriodGenerated:vector ETV
attr interpolationmode none
attr recordingmode vector
attr title "backoff periods"
vector 156 ZrpTestNetwork.node1.wlan[0].mac.dcf.channelAccess.contention backoffActive:vector ETV
attr autoWarmupFilter false
attr interpolationmode sample-hold
attr recordingmode vector
attr source warmup(count(backoffStarted)-count(backoffStopped))
attr title "backoff active"
vector 157 ZrpTestNetwork.node1.wlan[0].mac.dcf.channelAccess.contention stateChanged:vector ETV
attr enum IDLE,DEFER,IFS_AND_BACKOFF
attr interpolationmode none
attr recordingmode vector
attr title "contention state changed"
attr type enum
vector 158 ZrpTestNetwork.node1.wlan[0].mac.dcf.recipientMacDataService packetDropDuplicateDetected:vector(packetBytes) ETV
attr interpolationmode none
attr recordingmode vector(packetBytes)
attr source packetDropReasonIsDuplicateDetected(packetDropped)
attr title "packet drops: duplicate detected, packetBytes"
vector 159 ZrpTestNetwork.node1.wlan[0].mac.dcf.recoveryProcedure contentionWindowChanged:vector ETV
attr interpolationmode sample-hold
attr recordingmode vector
attr title "contention window"
vector 160 ZrpTestNetwork.node1.wlan[0].mac.dcf packetSentToPeer:vector(packetBytes) ETV
attr interpolationmode none
attr recordingmode vector(packetBytes)
attr title "packets sent, packetBytes"
vector 161 ZrpTestNetwork.node1.wlan[0].mac.dcf packetSentToPeerUnicast:vector(packetBytes) ETV
attr interpolationmode none
attr recordingmode vector(packetBytes)
attr source ieee80211Unicast(packetSentToPeer)
attr title "packets sent: unicast, packetBytes"
vector 162 ZrpTestNetwork.node1.wlan[0].mac.dcf packetSentToPeerMulticast:vector(packetBytes) ETV
attr interpolationmode none
attr recordingmode vector(packetBytes)
attr source ieee80211Multicast(packetSentToPeer)
attr title "packets sent: multicast, packetBytes"
vector 163 ZrpTestNetwork.node1.wlan[0].mac.dcf packetSentToPeerBroadcast:vector(packetBytes) ETV
attr interpolationmode none
attr recordingmode vector(packetBytes)
attr source ieee80211Broadcast(packetSentToPeer)
attr title "packets sent: broadcast , packetBytes"
vector 164 ZrpTestNetwork.node1.wlan[0].mac.dcf packetSentToPeerWithRetry:vector(packetBytes) ETV
attr interpolationmode none
attr recordingmode vector(packetBytes)
attr source ieee80211Retry(packetSentToPeer)
attr title "packets sent: with retry, packetBytes"
vector 165 ZrpTestNetwork.node1.wlan[0].mac.dcf packetSentToPeerWithoutRetry:vector(packetBytes) ETV
attr interpolationmode none
attr recordingmode vector(packetBytes)
attr source ieee80211NotRetry(packetSentToPeer)
attr title "packets sent: without retry, packetBytes"
vector 166 ZrpTestNetwork.node1.wlan[0].mac.dcf packetReceivedFromPeer:vector(packetBytes) ETV
attr interpolationmode none
attr recordingmode vector(packetBytes)
attr title "packets received, packetBytes"
vector 167 ZrpTestNetwork.node1.wlan[0].mac.dcf packetReceivedFromPeerUnicast:vector(packetBytes) ETV
attr interpolationmode none
attr recordingmode vector(packetBytes)
attr source ieee80211Unicast(packetReceivedFromPeer)
attr title "packets received: unicast, packetBytes"
vector 168 ZrpTestNetwork.node1.wlan[0].mac.dcf packetReceivedFromPeerMulticast:vector(packetBytes) ETV
attr interpolationmode none
attr recordingmode vector(packetBytes)
attr source ieee80211Multicast(packetReceivedFromPeer)
attr title "packets received: multicast, packetBytes"
vector 169 ZrpTestNetwork.node1.wlan[0].mac.dcf packetReceivedFromPeerBroadcast:vector(packetBytes) ETV
attr interpolationmode none
attr recordingmode vector(packetBytes)
attr source ieee80211Broadcast(packetReceivedFromPeer)
attr title "packets received: broadcast, packetBytes"
vector 170 ZrpTestNetwork.node1.wlan[0].mac.dcf packetReceivedFromPeerWithRetry:vector(packetBytes) ETV
attr interpolationmode none
attr recordingmode vector(packetBytes)
attr source ieee80211Retry(packetReceivedFromPeer)
attr title "packets received: with retry, packetBytes"
vector 171 ZrpTestNetwork.node1.wlan[0].mac.dcf packetReceivedFromPeerWithoutRetry:vector(packetBytes) ETV
attr interpolationmode none
attr recordingmode vector(packetBytes)
attr source ieee80211NotRetry(packetReceivedFromPeer)
attr title "packets received: without retry, packetBytes"
vector 172 ZrpTestNetwork.node1.wlan[0].mac.dcf packetDrop:vector(packetBytes) ETV
attr interpolationmode none
attr recordingmode vector(packetBytes)
attr source packetDropped
attr title "packet drops, packetBytes"
vector 173 ZrpTestNetwork.node1.wlan[0].mac.dcf packetDropNotAddressedToUs:vector(packetBytes) ETV
attr interpolationmode none
attr recordingmode vector(packetBytes)
attr source packetDropReasonIsNotAddressedToUs(packetDropped)
attr title "packet drops: not addressed to us, packetBytes"
vector 174 ZrpTestNetwork.node1.wlan[0].mac.dcf packetDropQueueOverflow:vector(packetBytes) ETV
attr interpolationmode none
attr recordingmode vector(packetBytes)
attr source packetDropReasonIsQueueOverflow(packetDropped)
attr title "packet drops: queue overflow, packetBytes"
vector 175 ZrpTestNetwork.node1.wlan[0].mac.dcf packetDropRetryLimitReached:vector(packetBytes) ETV
attr interpolationmode none
attr recordingmode vector(packetBytes)
attr source packetDropReasonIsRetryLimitReached(packetDropped)
attr title "packet drops: retry limit reached, packetBytes"
vector 176 ZrpTestNetwork.node1.wlan[0].mac.dcf frameSequenceActive:vector ETV
attr autoWarmupFilter false
attr interpolationmode sample-hold
attr recordingmode vector
attr source warmup(count(frameSequenceStarted)-count(frameSequenceFinished))
attr title "frame sequence active"
vector 177 ZrpTestNetwork.node1.wlan[0].mac.dcf datarateSelected:vector ETV
attr interpolationmode none
attr recordingmode vector
attr title "datarates selected"
vector 178 ZrpTestNetwork.node1.wlan[0].mac.rx nav:vector ETV
attr interpolationmode linear
attr recordingmode vector
attr source navChanged
attr title "network allocation vector"
vector 179 ZrpTestNetwork.node1.wlan[0].mac packetSentToUpper:vector(packetBytes) ETV
attr interpolationmode none
attr recordingmode vector(packetBytes)
attr title "packets sent to upper layer, packetBytes"
vector 180 ZrpTestNetwork.node1.wlan[0].mac packetSentToLower:vector(packetBytes) ETV
attr interpolationmode none
attr recordingmode vector(packetBytes)
attr title "packets sent to lower layer, packetBytes"
vector 181 ZrpTestNetwork.node1.wlan[0].mac packetReceivedFromUpper:vector(packetBytes) ETV
attr interpolationmode none
attr recordingmode vector(packetBytes)
attr title "packets received from upper layer, packetBytes"
vector 182 ZrpTestNetwork.node1.wlan[0].mac packetReceivedFromLower:vector(packetBytes) ETV
attr interpolationmode none
attr recordingmode vector(packetBytes)
attr title "packets received from lower layer, packetBytes"
vector 183 ZrpTestNetwork.node1.wlan[0].mac packetDrop:vector(packetBytes) ETV
attr interpolationmode none
attr recordingmode vector(packetBytes)
attr source packetDropped
attr title "packet drops, packetBytes"
vector 184 ZrpTestNetwork.node1.wlan[0].mac packetDropIncorrectlyReceived:vector(packetBytes) ETV
attr interpolationmode none
attr recordingmode vector(packetBytes)
attr source packetDropReasonIsIncorrectlyReceived(packetDropped)
attr title "packet drops: incorrectly received, packetBytes"
vector 185 ZrpTestNetwork.node1.wlan[0].mac packetDropNotAddressedToUs:vector(packetBytes) ETV
attr interpolationmode none
attr recordingmode vector(packetBytes)
attr source packetDropReasonIsNotAddressedToUs(packetDropped)
attr title "packet drops: not addressed to us, packetBytes"
vector 186 ZrpTestNetwork.node1.wlan[0].mac packetDropQueueOverflow:vector(packetBytes) ETV
attr interpolationmode none
attr recordingmode vector(packetBytes)
attr source packetDropReasonIsQueueOverflow(packetDropped)
attr title "packet drops: queue overflow, packetBytes"
vector 187 ZrpTestNetwork.node1.wlan[0].mac packetDropRetryLimitReached:vector(packetBytes) ETV
attr interpolationmode none
attr recordingmode vector(packetBytes)
attr source packetDropReasonIsRetryLimitReached(packetDropped)
attr title "packet drops: retry limit reached, packetBytes"
vector 188 ZrpTestNetwork.node1.wlan[0].mac packetDropDuplicateDetected:vector(packetBytes) ETV
attr interpolationmode none
attr recordingmode vector(packetBytes)
attr source packetDropReasonIsDuplicateDetected(packetDropped)
attr title "packet drops: duplicate detected, packetBytes"
vector 189 ZrpTestNetwork.node1.wlan[0].mac packetDropOther:vector(packetBytes) ETV
attr interpolationmode none
attr recordingmode vector(packetBytes)
attr source packetDropReasonIsOther(packetDropped)
attr title "packet drops: other, packetBytes"
vector 190 ZrpTestNetwork.node1.wlan[0].radio radioMode:vector ETV
attr interpolationmode sample-hold
attr recordingmode vector
attr source radioModeChanged
attr title "Radio mode"
vector 191 ZrpTestNetwork.node1.wlan[0].radio receptionState:vector ETV
attr interpolationmode sample-hold
attr recordingmode vector
attr source receptionStateChanged
attr title "Radio reception state"
vector 192 ZrpTestNetwork.node1.wlan[0].radio transmissionState:vector ETV
attr interpolationmode sample-hold
attr recordingmode vector
attr source transmissionStateChanged
attr title "Radio transmission state"
vector 193 ZrpTestNetwork.node1.wlan[0].radio radioChannel:vector ETV
attr interpolationmode sample-hold
attr recordingmode vector
attr source radioChannelChanged
attr title "Radio channel"
vector 194 ZrpTestNetwork.node1.wlan[0] packetDropInterfaceDown:vector(packetBytes) ETV
attr interpolationmode none
attr recordingmode vector(packetBytes)
attr source packetDropReasonIsInterfaceDown(packetDropped)
attr title "packet drops: interface down, packetBytes"
vector 195 ZrpTestNetwork.node1.wlan[0] packetDropNoCarrier:vector(packetBytes) ETV
attr interpolationmode none
attr recordingmode vector(packetBytes)
attr source packetDropReasonIsNoCarrier(packetDropped)
attr title "packet drops: no carrier, packetBytes"
vector 196 ZrpTestNetwork.node1.ipv4.ip packetDropAddressResolutionFailed:vector(packetBytes) ETV
attr interpolationmode none
attr recordingmode vector(packetBytes)
attr source packetDropReasonIsAddressResolutionFailed(packetDropped)
attr title "packet drop: address resolution failed, packetBytes"
vector 197 ZrpTestNetwork.node1.ipv4.ip packetDropHopLimitReached:vector(packetBytes) ETV
attr interpolationmode none
attr recordingmode vector(packetBytes)
attr source packetDropReasonIsHopLimitReached(packetDropped)
attr title "packet drop: hop limit reached, packetBytes"
vector 198 ZrpTestNetwork.node1.ipv4.ip packetDropForwardingDisabled:vector(packetBytes) ETV
attr interpolationmode none
attr recordingmode vector(packetBytes)
attr source packetDropReasonIsForwardingDisabled(packetDropped)
attr title "packet drop: forwarding disabled, packetBytes"
vector 199 ZrpTestNetwork.node1.ipv4.ip packetDropNoInterfaceFound:vector(packetBytes) ETV
attr interpolationmode none
attr recordingmode vector(packetBytes)
attr source packetDropReasonIsNoInterfaceFound(packetDropped)
attr title "packet drop: no interface found, packetBytes"
vector 200 ZrpTestNetwork.node1.ipv4.ip packetDropNoRouteFound:vector(packetBytes) ETV
attr interpolationmode none
attr recordingmode vector(packetBytes)
attr source packetDropReasonIsNoRouteFound(packetDropped)
attr title "packet drop: no route found, packetBytes"
vector 201 ZrpTestNetwork.node1.ipv4.ip packetDropUndefined:vector(packetBytes) ETV
attr interpolationmode none
attr recordingmode vector(packetBytes)
attr source packetDropReasonIsUndefined(packetDropped)
attr title "packet drop: undefined, packetBytes"
vector 202 ZrpTestNetwork.node1.udp packetSent:vector(packetBytes) ETV
attr interpolationmode none
attr recordingmode vector(packetBytes)
attr source packetSent
attr title "packets sent, packetBytes"
vector 203 ZrpTestNetwork.node1.udp packetReceived:vector(packetBytes) ETV
attr interpolationmode none
attr recordingmode vector(packetBytes)
attr source packetReceived
attr title "packets received, packetBytes"
vector 204 ZrpTestNetwork.node1.udp passedUpPk:vector(count) ETV
attr interpolationmode none
attr recordingmode vector(count)
attr source packetSentToUpper
attr title "packets passed up, count"
vector 205 ZrpTestNetwork.node1.udp droppedPkWrongPort:vector(count) ETV
attr interpolationmode none
attr recordingmode vector(count)
attr source packetDropReasonIsNoPortFound(packetDropped)
attr title "packets dropped (wrong port), count"
vector 206 ZrpTestNetwork.node1.udp droppedPkBadChecksum:vector(count) ETV
attr interpolationmode none
attr recordingmode vector(count)
attr source packetDropReasonIsIncorrectlyReceived(packetDropped)
attr title "packets dropped (checksum error), count"
vector 207 ZrpTestNetwork.node2.lo[0].lo rcvdPkFromHl:vector(packetBytes) ETV
attr interpolationmode none
attr recordingmode vector(packetBytes)
attr source packetReceivedFromUpper
attr title "packets received from higher layer, packetBytes"
vector 208 ZrpTestNetwork.node2.lo[0].lo passedUpPk:vector(packetBytes) ETV
attr interpolationmode none
attr recordingmode vector(packetBytes)
attr source packetSentToUpper
attr title "packets passed to higher layer, packetBytes"
vector 209 ZrpTestNetwork.node2.lo[0] packetDropInterfaceDown:vector(packetBytes) ETV
attr interpolationmode none
attr recordingmode vector(packetBytes)
attr source packetDropReasonIsInterfaceDown(packetDropped)
attr title "packet drops: interface down, packetBytes"
vector 210 ZrpTestNetwork.node2.lo[0] packetDropNoCarrier:vector(packetBytes) ETV
attr interpolationmode none
attr recordingmode vector(packetBytes)
attr source packetDropReasonIsNoCarrier(packetDropped)
attr title "packet drops: no carrier, packetBytes"
vector 211 ZrpTestNetwork.node2.wlan[0].mac.dcf.channelAccess.pendingQueue queueLength:vector ETV
attr autoWarmupFilter false
attr interpolationmode sample-hold
attr recordingmode vector
attr source "warmup(atomic(constant0(packetPushEnded) + count(packetPushStarted) - count(packetPulled) - count(packetRemoved) - count(packetDropped)))"
attr title "queue length"
attr unit pk
vector 212 ZrpTestNetwork.node2.wlan[0].mac.dcf.channelAccess.pendingQueue queueBitLength:vector ETV
attr autoWarmupFilter false
attr interpolationmode sample-hold
attr recordingmode vector
attr source "warmup(atomic(constant0(packetPushEnded) + sum(packetLength(packetPushStarted)) - sum(packetLength(packetPulled)) - sum(packetLength(packetRemoved)) - sum(packetLength(packetDropped))))"
attr title "queue bit length"
attr unit b
vector 213 ZrpTestNetwork.node2.wlan[0].mac.dcf.channelAccess.pendingQueue queueingTime:vector ETV
attr interpolationmode none
attr recordingmode vector
attr source queueingTime(packetPulled)
attr title "queueing times"
attr unit s
vector 214 ZrpTestNetwork.node2.wlan[0].mac.dcf.channelAccess.pendingQueue incomingPacketLengths:vector ETV
attr interpolationmode none
attr recordingmode vector
attr source packetLength(packetPushStarted)
attr title "incoming packet lengths"
attr unit b
vector 215 ZrpTestNetwork.node2.wlan[0].mac.dcf.channelAccess.pendingQueue incomingDataRate:vector ETV
attr interpolationmode linear
attr recordingmode vector
attr source throughput(packetPushStarted)
attr title "incoming datarate"
attr unit bps
vector 216 ZrpTestNetwork.node2.wlan[0].mac.dcf.channelAccess.pendingQueue outgoingPacketLengths:vector ETV
attr interpolationmode none
attr recordingmode vector
attr source packetLength(packetPulled)
attr title "outgoing packet lengths"
attr unit b
vector 217 ZrpTestNetwork.node2.wlan[0].mac.dcf.channelAccess.pendingQueue outgoingDataRate:vector ETV
attr interpolationmode linear
attr recordingmode vector
attr source throughput(packetPulled)
attr title "outgoing datarate"
attr unit bps
vector 218 ZrpTestNetwork.node2.wlan[0].mac.dcf.channelAccess.pendingQueue droppedPacketLengthsQueueOverflow:vector ETV
attr interpolationmode none
attr recordingmode vector
attr source packetLength(packetDropReasonIsQueueOverflow(packetDropped))
attr title "dropped packet lengths: queue overflow"
attr unit b
vector 219 ZrpTestNetwork.node2.wlan[0].mac.dcf.channelAccess.pendingQueue flowQueueingTime:vector ETV
attr interpolationmode none
attr recordingmode vector
attr source queueingTime(demuxFlow(packetPulled))
attr title "flow queueing times"
attr unit s
vector 220 ZrpTestNetwork.node2.wlan[0].mac.dcf.channelAccess.pendingQueue flowIncomingDataRate:vector ETV
attr interpolationmode linear
attr recordingmode vector
attr source throughput(flowPacketLength(demuxFlow(packetPushStarted)))
attr title "flow specific incoming data rate"
attr unit bps
vector 221 ZrpTestNetwork.node2.wlan[0].mac.dcf.channelAccess.pendingQueue flowOutgoingDataRate:vector ETV
attr interpolationmode linear
attr recordingmode vector
attr source throughput(flowPacketLength(demuxFlow(packetPulled)))
attr title "flow specific outgoing data rate"
attr unit bps
vector 222 ZrpTestNetwork.node2.wlan[0].mac.dcf.channelAccess.inProgressFrames queueingTime:vector ETV
attr interpolationmode none
attr recordingmode vector
attr source queueingTime(packetDequeued)
attr title "queueing times"
vector 223 ZrpTestNetwork.node2.wlan[0].mac.dcf.channelAccess.inProgressFrames queueLength:vector ETV
attr autoWarmupFilter false
attr interpolationmode sample-hold
attr recordingmode vector
attr source "warmup(count(packetEnqueued) - count(packetDequeued))"
attr title "queue length"
vector 224 ZrpTestNetwork.node2.wlan[0].mac.dcf.channelAccess.contention backoffPeriodGenerated:vector ETV
attr interpolationmode none
attr recordingmode vector
attr title "backoff periods"
vector 225 ZrpTestNetwork.node2.wlan[0].mac.dcf.channelAccess.contention backoffActive:vector ETV
attr autoWarmupFilter false
attr interpolationmode sample-hold
attr recordingmode vector
attr source warmup(count(backoffStarted)-count(backoffStopped))
attr title "backoff active"
vector 226 ZrpTestNetwork.node2.wlan[0].mac.dcf.channelAccess.contention stateChanged:vector ETV
attr enum IDLE,DEFER,IFS_AND_BACKOFF
attr interpolationmode none
attr recordingmode vector
attr title "contention state changed"
attr type enum
vector 227 ZrpTestNetwork.node2.wlan[0].mac.dcf.recipientMacDataService packetDropDuplicateDetected:vector(packetBytes) ETV
attr interpolationmode none
attr recordingmode vector(packetBytes)
attr source packetDropReasonIsDuplicateDetected(packetDropped)
attr title "packet drops: duplicate detected, packetBytes"
vector 228 ZrpTestNetwork.node2.wlan[0].mac.dcf.recoveryProcedure contentionWindowChanged:vector ETV
attr interpolationmode sample-hold
attr recordingmode vector
attr title "contention window"
vector 229 ZrpTestNetwork.node2.wlan[0].mac.dcf packetSentToPeer:vector(packetBytes) ETV
attr interpolationmode none
attr recordingmode vector(packetBytes)
attr title "packets sent, packetBytes"
vector 230 ZrpTestNetwork.node2.wlan[0].mac.dcf packetSentToPeerUnicast:vector(packetBytes) ETV
attr interpolationmode none
attr recordingmode vector(packetBytes)
attr source ieee80211Unicast(packetSentToPeer)
attr title "packets sent: unicast, packetBytes"
vector 231 ZrpTestNetwork.node2.wlan[0].mac.dcf packetSentToPeerMulticast:vector(packetBytes) ETV
attr interpolationmode none
attr recordingmode vector(packetBytes)
attr source ieee80211Multicast(packetSentToPeer)
attr title "packets sent: multicast, packetBytes"
vector 232 ZrpTestNetwork.node2.wlan[0].mac.dcf packetSentToPeerBroadcast:vector(packetBytes) ETV
attr interpolationmode none
attr recordingmode vector(packetBytes)
attr source ieee80211Broadcast(packetSentToPeer)
attr title "packets sent: broadcast , packetBytes"
vector 233 ZrpTestNetwork.node2.wlan[0].mac.dcf packetSentToPeerWithRetry:vector(packetBytes) ETV
attr interpolationmode none
attr recordingmode vector(packetBytes)
attr source ieee80211Retry(packetSentToPeer)
attr title "packets sent: with retry, packetBytes"
vector 234 ZrpTestNetwork.node2.wlan[0].mac.dcf packetSentToPeerWithoutRetry:vector(packetBytes) ETV
attr interpolationmode none
attr recordingmode vector(packetBytes)
attr source ieee80211NotRetry(packetSentToPeer)
attr title "packets sent: without retry, packetBytes"
vector 235 ZrpTestNetwork.node2.wlan[0].mac.dcf packetReceivedFromPeer:vector(packetBytes) ETV
attr interpolationmode none
attr recordingmode vector(packetBytes)
attr title "packets received, packetBytes"
vector 236 ZrpTestNetwork.node2.wlan[0].mac.dcf packetReceivedFromPeerUnicast:vector(packetBytes) ETV
attr interpolationmode none
attr recordingmode vector(packetBytes)
attr source ieee80211Unicast(packetReceivedFromPeer)
attr title "packets received: unicast, packetBytes"
vector 237 ZrpTestNetwork.node2.wlan[0].mac.dcf packetReceivedFromPeerMulticast:vector(packetBytes) ETV
attr interpolationmode none
attr recordingmode vector(packetBytes)
attr source ieee80211Multicast(packetReceivedFromPeer)
attr title "packets received: multicast, packetBytes"
vector 238 ZrpTestNetwork.node2.wlan[0].mac.dcf packetReceivedFromPeerBroadcast:vector(packetBytes) ETV
attr interpolationmode none
attr recordingmode vector(packetBytes)
attr source ieee80211Broadcast(packetReceivedFromPeer)
attr title "packets received: broadcast, packetBytes"
vector 239 ZrpTestNetwork.node2.wlan[0].mac.dcf packetReceivedFromPeerWithRetry:vector(packetBytes) ETV
attr interpolationmode none
attr recordingmode vector(packetBytes)
attr source ieee80211Retry(packetReceivedFromPeer)
attr title "packets received: with retry, packetBytes"
vector 240 ZrpTestNetwork.node2.wlan[0].mac.dcf packetReceivedFromPeerWithoutRetry:vector(packetBytes) ETV
attr interpolationmode none
attr recordingmode vector(packetBytes)
attr source ieee80211NotRetry(packetReceivedFromPeer)
attr title "packets received: without retry, packetBytes"
vector 241 ZrpTestNetwork.node2.wlan[0].mac.dcf packetDrop:vector(packetBytes) ETV
attr interpolationmode none
attr recordingmode vector(packetBytes)
attr source packetDropped
attr title "packet drops, packetBytes"
vector 242 ZrpTestNetwork.node2.wlan[0].mac.dcf packetDropNotAddressedToUs:vector(packetBytes) ETV
attr interpolationmode none
attr recordingmode vector(packetBytes)
attr source packetDropReasonIsNotAddressedToUs(packetDropped)
attr title "packet drops: not addressed to us, packetBytes"
vector 243 ZrpTestNetwork.node2.wlan[0].mac.dcf packetDropQueueOverflow:vector(packetBytes) ETV
attr interpolationmode none
attr recordingmode vector(packetBytes)
attr source packetDropReasonIsQueueOverflow(packetDropped)
attr title "packet drops: queue overflow, packetBytes"
vector 244 ZrpTestNetwork.node2.wlan[0].mac.dcf packetDropRetryLimitReached:vector(packetBytes) ETV
attr interpolationmode none
attr recordingmode vector(packetBytes)
attr source packetDropReasonIsRetryLimitReached(packetDropped)
attr title "packet drops: retry limit reached, packetBytes"
vector 245 ZrpTestNetwork.node2.wlan[0].mac.dcf frameSequenceActive:vector ETV
attr autoWarmupFilter false
attr interpolationmode sample-hold
attr recordingmode vector
attr source warmup(count(frameSequenceStarted)-count(frameSequenceFinished))
attr title "frame sequence active"
vector 246 ZrpTestNetwork.node2.wlan[0].mac.dcf datarateSelected:vector ETV
attr interpolationmode none
attr recordingmode vector
attr title "datarates selected"
vector 247 ZrpTestNetwork.node2.wlan[0].mac.rx nav:vector ETV
attr interpolationmode linear
attr recordingmode vector
attr source navChanged
attr title "network allocation vector"
vector 248 ZrpTestNetwork.node2.wlan[0].mac packetSentToUpper:vector(packetBytes) ETV
attr interpolationmode none
attr recordingmode vector(packetBytes)
attr title "packets sent to upper layer, packetBytes"
vector 249 ZrpTestNetwork.node2.wlan[0].mac packetSentToLower:vector(packetBytes) ETV
attr interpolationmode none
attr recordingmode vector(packetBytes)
attr title "packets sent to lower layer, packetBytes"
vector 250 ZrpTestNetwork.node2.wlan[0].mac packetReceivedFromUpper:vector(packetBytes) ETV
attr interpolationmode none
attr recordingmode vector(packetBytes)
attr title "packets received from upper layer, packetBytes"
vector 251 ZrpTestNetwork.node2.wlan[0].mac packetReceivedFromLower:vector(packetBytes) ETV
attr interpolationmode none
attr recordingmode vector(packetBytes)
attr title "packets received from lower layer, packetBytes"
vector 252 ZrpTestNetwork.node2.wlan[0].mac packetDrop:vector(packetBytes) ETV
attr interpolationmode none
attr recordingmode vector(packetBytes)
attr source packetDropped
attr title "packet drops, packetBytes"
vector 253 ZrpTestNetwork.node2.wlan[0].mac packetDropIncorrectlyReceived:vector(packetBytes) ETV
attr interpolationmode none
attr recordingmode vector(packetBytes)
attr source packetDropReasonIsIncorrectlyReceived(packetDropped)
attr title "packet drops: incorrectly received, packetBytes"
vector 254 ZrpTestNetwork.node2.wlan[0].mac packetDropNotAddressedToUs:vector(packetBytes) ETV
attr interpolationmode none
attr recordingmode vector(packetBytes)
attr source packetDropReasonIsNotAddressedToUs(packetDropped)
attr title "packet drops: not addressed to us, packetBytes"
vector 255 ZrpTestNetwork.node2.wlan[0].mac packetDropQueueOverflow:vector(packetBytes) ETV
attr interpolationmode none
attr recordingmode vector(packetBytes)
attr source packetDropReasonIsQueueOverflow(packetDropped)
attr title "packet drops: queue overflow, packetBytes"
vector 256 ZrpTestNetwork.node2.wlan[0].mac packetDropRetryLimitReached:vector(packetBytes) ETV
attr interpolationmode none
attr recordingmode vector(packetBytes)
attr source packetDropReasonIsRetryLimitReached(packetDropped)
attr title "packet drops: retry limit reached, packetBytes"
vector 257 ZrpTestNetwork.node2.wlan[0].mac packetDropDuplicateDetected:vector(packetBytes) ETV
attr interpolationmode none
attr recordingmode vector(packetBytes)
attr source packetDropReasonIsDuplicateDetected(packetDropped)
attr title "packet drops: duplicate detected, packetBytes"
vector 258 ZrpTestNetwork.node2.wlan[0].mac packetDropOther:vector(packetBytes) ETV
attr interpolationmode none
attr recordingmode vector(packetBytes)
attr source packetDropReasonIsOther(packetDropped)
attr title "packet drops: other, packetBytes"
vector 259 ZrpTestNetwork.node2.wlan[0].radio radioMode:vector ETV
attr interpolationmode sample-hold
attr recordingmode vector
attr source radioModeChanged
attr title "Radio mode"
vector 260 ZrpTestNetwork.node2.wlan[0].radio receptionState:vector ETV
attr interpolationmode sample-hold
attr recordingmode vector
attr source receptionStateChanged
attr title "Radio reception state"
vector 261 ZrpTestNetwork.node2.wlan[0].radio transmissionState:vector ETV
attr interpolationmode sample-hold
attr recordingmode vector
attr source transmissionStateChanged
attr title "Radio transmission state"
vector 262 ZrpTestNetwork.node2.wlan[0].radio radioChannel:vector ETV
attr interpolationmode sample-hold
attr recordingmode vector
attr source radioChannelChanged
attr title "Radio channel"
vector 263 ZrpTestNetwork.node2.wlan[0] packetDropInterfaceDown:vector(packetBytes) ETV
attr interpolationmode none
attr recordingmode vector(packetBytes)
attr source packetDropReasonIsInterfaceDown(packetDropped)
attr title "packet drops: interface down, packetBytes"
vector 264 ZrpTestNetwork.node2.wlan[0] packetDropNoCarrier:vector(packetBytes) ETV
attr interpolationmode none
attr recordingmode vector(packetBytes)
attr source packetDropReasonIsNoCarrier(packetDropped)
attr title "packet drops: no carrier, packetBytes"
vector 265 ZrpTestNetwork.node2.ipv4.ip packetDropAddressResolutionFailed:vector(packetBytes) ETV
attr interpolationmode none
attr recordingmode vector(packetBytes)
attr source packetDropReasonIsAddressResolutionFailed(packetDropped)
attr title "packet drop: address resolution failed, packetBytes"
vector 266 ZrpTestNetwork.node2.ipv4.ip packetDropHopLimitReached:vector(packetBytes) ETV
attr interpolationmode none
attr recordingmode vector(packetBytes)
attr source packetDropReasonIsHopLimitReached(packetDropped)
attr title "packet drop: hop limit reached, packetBytes"
vector 267 ZrpTestNetwork.node2.ipv4.ip packetDropForwardingDisabled:vector(packetBytes) ETV
attr interpolationmode none
attr recordingmode vector(packetBytes)
attr source packetDropReasonIsForwardingDisabled(packetDropped)
attr title "packet drop: forwarding disabled, packetBytes"
vector 268 ZrpTestNetwork.node2.ipv4.ip packetDropNoInterfaceFound:vector(packetBytes) ETV
attr interpolationmode none
attr recordingmode vector(packetBytes)
attr source packetDropReasonIsNoInterfaceFound(packetDropped)
attr title "packet drop: no interface found, packetBytes"
vector 269 ZrpTestNetwork.node2.ipv4.ip packetDropNoRouteFound:vector(packetBytes) ETV
attr interpolationmode none
attr recordingmode vector(packetBytes)
attr source packetDropReasonIsNoRouteFound(packetDropped)
attr title "packet drop: no route found, packetBytes"
vector 270 ZrpTestNetwork.node2.ipv4.ip packetDropUndefined:vector(packetBytes) ETV
attr interpolationmode none
attr recordingmode vector(packetBytes)
attr source packetDropReasonIsUndefined(packetDropped)
attr title "packet drop: undefined, packetBytes"
vector 271 ZrpTestNetwork.node2.udp packetSent:vector(packetBytes) ETV
attr interpolationmode none
attr recordingmode vector(packetBytes)
attr source packetSent
attr title "packets sent, packetBytes"
vector 272 ZrpTestNetwork.node2.udp packetReceived:vector(packetBytes) ETV
attr interpolationmode none
attr recordingmode vector(packetBytes)
attr source packetReceived
attr title "packets received, packetBytes"
vector 273 ZrpTestNetwork.node2.udp passedUpPk:vector(count) ETV
attr interpolationmode none
attr recordingmode vector(count)
attr source packetSentToUpper
attr title "packets passed up, count"
vector 274 ZrpTestNetwork.node2.udp droppedPkWrongPort:vector(count) ETV
attr interpolationmode none
attr recordingmode vector(count)
attr source packetDropReasonIsNoPortFound(packetDropped)
attr title "packets dropped (wrong port), count"
vector 275 ZrpTestNetwork.node2.udp droppedPkBadChecksum:vector(count) ETV
attr interpolationmode none
attr recordingmode vector(count)
attr source packetDropReasonIsIncorrectlyReceived(packetDropped)
attr title "packets dropped (checksum error), count"
vector 276 ZrpTestNetwork.node3.lo[0].lo rcvdPkFromHl:vector(packetBytes) ETV
attr interpolationmode none
attr recordingmode vector(packetBytes)
attr source packetReceivedFromUpper
attr title "packets received from higher layer, packetBytes"
vector 277 ZrpTestNetwork.node3.lo[0].lo passedUpPk:vector(packetBytes) ETV
attr interpolationmode none
attr recordingmode vector(packetBytes)
attr source packetSentToUpper
attr title "packets passed to higher layer, packetBytes"
vector 278 ZrpTestNetwork.node3.lo[0] packetDropInterfaceDown:vector(packetBytes) ETV
attr interpolationmode none
attr recordingmode vector(packetBytes)
attr source packetDropReasonIsInterfaceDown(packetDropped)
attr title "packet drops: interface down, packetBytes"
vector 279 ZrpTestNetwork.node3.lo[0] packetDropNoCarrier:vector(packetBytes) ETV
attr interpolationmode none
attr recordingmode vector(packetBytes)
attr source packetDropReasonIsNoCarrier(packetDropped)
attr title "packet drops: no carrier, packetBytes"
vector 280 ZrpTestNetwork.node3.wlan[0].mac.dcf.channelAccess.pendingQueue queueLength:vector ETV
attr autoWarmupFilter false
attr interpolationmode sample-hold
attr recordingmode vector
attr source "warmup(atomic(constant0(packetPushEnded) + count(packetPushStarted) - count(packetPulled) - count(packetRemoved) - count(packetDropped)))"
attr title "queue length"
attr unit pk
vector 281 ZrpTestNetwork.node3.wlan[0].mac.dcf.channelAccess.pendingQueue queueBitLength:vector ETV
attr autoWarmupFilter false
attr interpolationmode sample-hold
attr recordingmode vector
attr source "warmup(atomic(constant0(packetPushEnded) + sum(packetLength(packetPushStarted)) - sum(packetLength(packetPulled)) - sum(packetLength(packetRemoved)) - sum(packetLength(packetDropped))))"
attr title "queue bit length"
attr unit b
vector 282 ZrpTestNetwork.node3.wlan[0].mac.dcf.channelAccess.pendingQueue queueingTime:vector ETV
attr interpolationmode none
attr recordingmode vector
attr source queueingTime(packetPulled)
attr title "queueing times"
attr unit s
vector 283 ZrpTestNetwork.node3.wlan[0].mac.dcf.channelAccess.pendingQueue incomingPacketLengths:vector ETV
attr interpolationmode none
attr recordingmode vector
attr source packetLength(packetPushStarted)
attr title "incoming packet lengths"
attr unit b
vector 284 ZrpTestNetwork.node3.wlan[0].mac.dcf.channelAccess.pendingQueue incomingDataRate:vector ETV
attr interpolationmode linear
attr recordingmode vector
attr source throughput(packetPushStarted)
attr title "incoming datarate"
attr unit bps
vector 285 ZrpTestNetwork.node3.wlan[0].mac.dcf.channelAccess.pendingQueue outgoingPacketLengths:vector ETV
attr interpolationmode none
attr recordingmode vector
attr source packetLength(packetPulled)
attr title "outgoing packet lengths"
attr unit b
vector 286 ZrpTestNetwork.node3.wlan[0].mac.dcf.channelAccess.pendingQueue outgoingDataRate:vector ETV
attr interpolationmode linear
attr recordingmode vector
attr source throughput(packetPulled)
attr title "outgoing datarate"
attr unit bps
vector 287 ZrpTestNetwork.node3.wlan[0].mac.dcf.channelAccess.pendingQueue droppedPacketLengthsQueueOverflow:vector ETV
attr interpolationmode none
attr recordingmode vector
attr source packetLength(packetDropReasonIsQueueOverflow(packetDropped))
attr title "dropped packet lengths: queue overflow"
attr unit b
vector 288 ZrpTestNetwork.node3.wlan[0].mac.dcf.channelAccess.pendingQueue flowQueueingTime:vector ETV
attr interpolationmode none
attr recordingmode vector
attr source queueingTime(demuxFlow(packetPulled))
attr title "flow queueing times"
attr unit s
vector 289 ZrpTestNetwork.node3.wlan[0].mac.dcf.channelAccess.pendingQueue flowIncomingDataRate:vector ETV
attr interpolationmode linear
attr recordingmode vector
attr source throughput(flowPacketLength(demuxFlow(packetPushStarted)))
attr title "flow specific incoming data rate"
attr unit bps
vector 290 ZrpTestNetwork.node3.wlan[0].mac.dcf.channelAccess.pendingQueue flowOutgoingDataRate:vector ETV
attr interpolationmode linear
attr recordingmode vector
attr source throughput(flowPacketLength(demuxFlow(packetPulled)))
attr title "flow specific outgoing data rate"
attr unit bps
vector 291 ZrpTestNetwork.node3.wlan[0].mac.dcf.channelAccess.inProgressFrames queueingTime:vector ETV
attr interpolationmode none
attr recordingmode vector
attr source queueingTime(packetDequeued)
attr title "queueing times"
vector 292 ZrpTestNetwork.node3.wlan[0].mac.dcf.channelAccess.inProgressFrames queueLength:vector ETV
attr autoWarmupFilter false
attr interpolationmode sample-hold
attr recordingmode vector
attr source "warmup(count(packetEnqueued) - count(packetDequeued))"
attr title "queue length"
vector 293 ZrpTestNetwork.node3.wlan[0].mac.dcf.channelAccess.contention backoffPeriodGenerated:vector ETV
attr interpolationmode none
attr recordingmode vector
attr title "backoff periods"
vector 294 ZrpTestNetwork.node3.wlan[0].mac.dcf.channelAccess.contention backoffActive:vector ETV
attr autoWarmupFilter false
attr interpolationmode sample-hold
attr recordingmode vector
attr source warmup(count(backoffStarted)-count(backoffStopped))
attr title "backoff active"
vector 295 ZrpTestNetwork.node3.wlan[0].mac.dcf.channelAccess.contention stateChanged:vector ETV
attr enum IDLE,DEFER,IFS_AND_BACKOFF
attr interpolationmode none
attr recordingmode vector
attr title "contention state changed"
attr type enum
vector 296 ZrpTestNetwork.node3.wlan[0].mac.dcf.recipientMacDataService packetDropDuplicateDetected:vector(packetBytes) ETV
attr interpolationmode none
attr recordingmode vector(packetBytes)
attr source packetDropReasonIsDuplicateDetected(packetDropped)
attr title "packet drops: duplicate detected, packetBytes"
vector 297 ZrpTestNetwork.node3.wlan[0].mac.dcf.recoveryProcedure contentionWindowChanged:vector ETV
attr interpolationmode sample-hold
attr recordingmode vector
attr title "contention window"
vector 298 ZrpTestNetwork.node3.wlan[0].mac.dcf packetSentToPeer:vector(packetBytes) ETV
attr interpolationmode none
attr recordingmode vector(packetBytes)
attr title "packets sent, packetBytes"
vector 299 ZrpTestNetwork.node3.wlan[0].mac.dcf packetSentToPeerUnicast:vector(packetBytes) ETV
attr interpolationmode none
attr recordingmode vector(packetBytes)
attr source ieee80211Unicast(packetSentToPeer)
attr title "packets sent: unicast, packetBytes"
vector 300 ZrpTestNetwork.node3.wlan[0].mac.dcf packetSentToPeerMulticast:vector(packetBytes) ETV
attr interpolationmode none
attr recordingmode vector(packetBytes)
attr source ieee80211Multicast(packetSentToPeer)
attr title "packets sent: multicast, packetBytes"
vector 301 ZrpTestNetwork.node3.wlan[0].mac.dcf packetSentToPeerBroadcast:vector(packetBytes) ETV
attr interpolationmode none
attr recordingmode vector(packetBytes)
attr source ieee80211Broadcast(packetSentToPeer)
attr title "packets sent: broadcast , packetBytes"
[...]
156	670	4	1
156	678	4	0
157	0	0	0
157	0	0	0
157	51	1	0
157	51	1	2
157	59	1	2
157	59	1	0
157	72	1	0
157	72	1	0
157	198	1.000054700993	0
157	198	1.000054700993	0
157	260	2	0
157	260	2	2
157	268	2	2
157	268	2	0
157	281	2	0
157	281	2	0
157	407	2.000054700993	0
157	407	2.000054700993	0
157	461	3	0
157	461	3	2
157	469	3	2
157	469	3	0
157	482	3	0
157	482	3	0
157	608	3.000054700993	0
157	608	3.000054700993	0
157	670	4	0
157	670	4	2
157	678	4	2
157	678	4	0
157	691	4	0
157	691	4	0
159	0	0	31
160	147	1.000054	70
160	356	2.000054	70
160	557	3.000054	70
162	147	1.000054	70
162	356	2.000054	70
162	557	3.000054	70
163	147	1.000054	70
163	356	2.000054	70
163	557	3.000054	70
165	147	1.000054	70
165	356	2.000054	70
165	557	3.000054	70
176	0	0	0
176	0	0	0
176	71	1	1
176	147	1.000054	0
176	280	2	1
176	356	2.000054	0
176	481	3	1
176	557	3.000054	0
176	690	4	1
177	71	1	24000000
177	280	2	24000000
177	481	3	24000000
177	690	4	24000000
180	71	1	70
180	280	2	70
180	481	3	70
180	690	4	70
181	51	1	42
181	260	2	42
181	461	3	42
181	670	4	42
190	0	0	0
190	0	0	0
190	0	0	2
190	72	1	3
190	155	1.000054	2
190	281	2	3
190	364	2.000054	2
190	482	3	3
190	565	3.000054	2
190	691	4	3
191	0	0	1
191	72	1	0
191	155	1.000054	2
191	198	1.000054700993	1
191	281	2	0
191	364	2.000054	2
191	407	2.000054700993	1
191	482	3	0
191	565	3.000054	2
191	608	3.000054700993	1
191	691	4	0
192	72	1	1
192	73	1	2
192	147	1.000054	1
192	155	1.000054	0
192	281	2	1
192	282	2	2
192	356	2.000054	1
192	364	2.000054	0
192	482	3	1
192	483	3	2
192	557	3.000054	1
192	565	3.000054	0
192	691	4	1
192	692	4	2
193	0	0	0
202	27	1	14
202	236	2	14
202	437	3	14
202	646	4	14
204	0	0	0
205	0	0	0
206	0	0	0
211	0	0	0
211	0	0	0
211	0	0	0
211	0	0	0
211	0	0	0
211	52	1	1
211	74	1	0
211	261	2	1
211	283	2	0
211	462	3	1
211	484	3	0
211	671	4	1
211	693	4	0
212	0	0	0
212	0	0	0
212	0	0	0
212	0	0	0
212	0	0	0
212	52	1	560
212	74	1	0
212	261	2	560
212	283	2	0
212	462	3	560
212	484	3	0
212	671	4	560
212	693	4	0
213	74	1	0
213	283	2	0
213	484	3	0
213	693	4	0
214	52	1	560
214	261	2	560
214	462	3	560
214	671	4	560
215	52	0.1	0
215	52	0.2	0
215	52	0.3	0
215	52	0.4	0
215	52	0.5	0
215	52	0.6	0
215	52	0.7	0
215	52	0.8	0
215	52	0.9	0
215	52	1	0
215	261	1.1	5600
215	261	1.2	0
215	261	1.3	0
215	261	1.4	0
215	261	1.5	0
215	261	1.6	0
215	261	1.7	0
215	261	1.8	0
215	261	1.9	0
215	261	2	0
215	462	2.1	5600
215	462	2.2	0
215	462	2.3	0
215	462	2.4	0
215	462	2.5	0
215	462	2.6	0
215	462	2.7	0
215	462	2.8	0
215	462	2.9	0
215	462	3	0
215	671	3.1	5600
215	671	3.2	0
215	671	3.3	0
215	671	3.4	0
215	671	3.5	0
215	671	3.6	0
215	671	3.7	0
215	671	3.8	0
215	671	3.9	0
215	671	4	0
216	74	1	560
216	283	2	560
216	484	3	560
216	693	4	560
217	74	0.1	0
217	74	0.2	0
217	74	0.3	0
217	74	0.4	0
217	74	0.5	0
217	74	0.6	0
217	74	0.7	0
217	74	0.8	0
217	74	0.9	0
217	74	1	0
217	283	1.1	5600
217	283	1.2	0
217	283	1.3	0
217	283	1.4	0
217	283	1.5	0
217	283	1.6	0
217	283	1.7	0
217	283	1.8	0
217	283	1.9	0
217	283	2	0
217	484	2.1	5600
217	484	2.2	0
217	484	2.3	0
217	484	2.4	0
217	484	2.5	0
217	484	2.6	0
217	484	2.7	0
217	484	2.8	0
217	484	2.9	0
217	484	3	0
217	693	3.1	5600
217	693	3.2	0
217	693	3.3	0
217	693	3.4	0
217	693	3.5	0
217	693	3.6	0
217	693	3.7	0
217	693	3.8	0
217	693	3.9	0
217	693	4	0
222	148	1.000054	5.4e-05
222	357	2.000054	5.4e-05
222	558	3.000054	5.4e-05
223	0	0	0
223	0	0	0
223	74	1	1
223	148	1.000054	0
223	283	2	1
223	357	2.000054	0
223	484	3	1
223	558	3.000054	0
223	693	4	1
224	52	1	25
224	261	2	5
224	462	3	17
224	671	4	1
225	0	0	0
225	0	0	0
225	52	1	1
225	60	1	0
225	261	2	1
225	269	2	0
225	462	3	1
225	470	3	0
225	671	4	1
225	679	4	0
226	0	0	0
226	0	0	0
226	52	1	0
226	52	1	2
226	60	1	2
226	60	1	0
226	75	1	0
226	75	1	0
226	188	1.000054499957	0
226	188	1.000054499957	0
226	261	2	0
226	261	2	2
226	269	2	2
226	269	2	0
226	284	2	0
226	284	2	0
226	397	2.000054499957	0
226	397	2.000054499957	0
226	462	3	0
226	462	3	2
226	470	3	2
226	470	3	0
226	485	3	0
226	485	3	0
226	598	3.000054499957	0
226	598	3.000054499957	0
226	671	4	0
226	671	4	2
226	679	4	2
226	679	4	0
226	694	4	0
226	694	4	0
228	0	0	31
229	148	1.000054	70
229	357	2.000054	70
229	558	3.000054	70
231	148	1.000054	70
231	357	2.000054	70
231	558	3.000054	70
232	148	1.000054	70
232	357	2.000054	70
232	558	3.000054	70
234	148	1.000054	70
234	357	2.000054	70
234	558	3.000054	70
245	0	0	0
245	0	0	0
245	74	1	1
245	148	1.000054	0
245	283	2	1
245	357	2.000054	0
245	484	3	1
245	558	3.000054	0
245	693	4	1
246	74	1	24000000
246	283	2	24000000
246	484	3	24000000
246	693	4	24000000
249	74	1	70
249	283	2	70
249	484	3	70
249	693	4	70
250	52	1	42
250	261	2	42
250	462	3	42
250	671	4	42
259	0	0	0
259	0	0	0
259	0	0	2
259	75	1	3
259	156	1.000054	2
259	284	2	3
259	365	2.000054	2
259	485	3	3
259	566	3.000054	2
259	694	4	3
260	0	0	1
260	75	1	0
260	156	1.000054	2
260	188	1.000054499957	1
260	284	2	0
260	365	2.000054	2
260	397	2.000054499957	1
260	485	3	0
260	566	3.000054	2
260	598	3.000054499957	1
260	694	4	0
261	75	1	1
261	76	1	2
261	148	1.000054	1
261	156	1.000054	0
261	284	2	1
261	285	2	2
261	357	2.000054	1
261	365	2.000054	0
261	485	3	1
261	486	3	2
261	558	3.000054	1
261	566	3.000054	0
261	694	4	1
261	695	4	2
262	0	0	0
271	28	1	14
271	237	2	14
271	438	3	14
271	647	4	14
273	0	0	0
274	0	0	0
275	0	0	0
280	0	0	0
280	0	0	0
280	0	0	0
280	0	0	0
280	0	0	0
280	53	1	1
280	77	1	0
280	262	2	1
280	286	2	0
280	463	3	1
280	487	3	0
280	672	4	1
280	696	4	0
281	0	0	0
281	0	0	0
281	0	0	0
281	0	0	0
281	0	0	0
281	53	1	560
281	77	1	0
281	262	2	560
281	286	2	0
281	463	3	560
281	487	3	0
281	672	4	560
281	696	4	0
282	77	1	0
282	286	2	0
282	487	3	0
282	696	4	0
283	53	1	560
283	262	2	560
283	463	3	560
283	672	4	560
284	53	0.1	0
284	53	0.2	0
284	53	0.3	0
284	53	0.4	0
284	53	0.5	0
284	53	0.6	0
284	53	0.7	0
284	53	0.8	0
284	53	0.9	0
284	53	1	0
284	262	1.1	5600
284	262	1.2	0
284	262	1.3	0
284	262	1.4	0
284	262	1.5	0
284	262	1.6	0
284	262	1.7	0
284	262	1.8	0
284	262	1.9	0
284	262	2	0
284	463	2.1	5600
284	463	2.2	0
284	463	2.3	0
284	463	2.4	0
284	463	2.5	0
284	463	2.6	0
284	463	2.7	0
284	463	2.8	0
284	463	2.9	0
284	463	3	0
284	672	3.1	5600
284	672	3.2	0
284	672	3.3	0
284	672	3.4	0
284	672	3.5	0
284	672	3.6	0
284	672	3.7	0
284	672	3.8	0
284	672	3.9	0
284	672	4	0
285	77	1	560
285	286	2	560
285	487	3	560
285	696	4	560
286	77	0.1	0
286	77	0.2	0
286	77	0.3	0
286	77	0.4	0
286	77	0.5	0
286	77	0.6	0
286	77	0.7	0
286	77	0.8	0
286	77	0.9	0
286	77	1	0
286	286	1.1	5600
286	286	1.2	0
286	286	1.3	0
286	286	1.4	0
286	286	1.5	0
286	286	1.6	0
286	286	1.7	0
286	286	1.8	0
286	286	1.9	0
286	286	2	0
286	487	2.1	5600
286	487	2.2	0
286	487	2.3	0
286	487	2.4	0
286	487	2.5	0
286	487	2.6	0
286	487	2.7	0
286	487	2.8	0
286	487	2.9	0
286	487	3	0
286	696	3.1	5600
286	696	3.2	0
286	696	3.3	0
286	696	3.4	0
286	696	3.5	0
286	696	3.6	0
286	696	3.7	0
286	696	3.8	0
286	696	3.9	0
286	696	4	0
291	149	1.000054	5.4e-05
291	358	2.000054	5.4e-05
291	559	3.000054	5.4e-05
292	0	0	0
292	0	0	0
292	77	1	1
292	149	1.000054	0
292	286	2	1
292	358	2.000054	0
292	487	3	1
292	559	3.000054	0
292	696	4	1
293	53	1	13
293	262	2	30
293	463	3	19
293	672	4	9
294	0	0	0
294	0	0	0
294	53	1	1
294	61	1	0
294	262	2	1
294	270	2	0
294	463	3	1
294	471	3	0
294	672	4	1
294	680	4	0
295	0	0	0
295	0	0	0
295	53	1	0
295	53	1	2
295	61	1	2
295	61	1	0
295	78	1	0
295	78	1	0
295	202	1.000054760365	0
295	202	1.000054760365	0
295	262	2	0
295	262	2	2
295	270	2	2
295	270	2	0
295	287	2	0
295	287	2	0
295	411	2.000054760365	0
295	411	2.000054760365	0
295	463	3	0
295	463	3	2
295	471	3	2
295	471	3	0
295	488	3	0
295	488	3	0
295	612	3.000054760365	0
295	612	3.000054760365	0
295	672	4	0
295	672	4	2
295	680	4	2
295	680	4	0
295	697	4	0
295	697	4	0
297	0	0	31
298	149	1.000054	70
298	358	2.000054	70
298	559	3.000054	70
300	149	1.000054	70
300	358	2.000054	70
300	559	3.000054	70
301	149	1.000054	70
301	358	2.000054	70
301	559	3.000054	70
303	149	1.000054	70
303	358	2.000054	70
303	559	3.000054	70
314	0	0	0
314	0	0	0
314	77	1	1
314	149	1.000054	0
314	286	2	1
314	358	2.000054	0
314	487	3	1
314	559	3.000054	0
314	696	4	1
315	77	1	24000000
315	286	2	24000000
315	487	3	24000000
315	696	4	24000000
318	77	1	70
318	286	2	70
318	487	3	70
318	696	4	70
319	53	1	42
319	262	2	42
319	463	3	42
319	672	4	42
328	0	0	0
328	0	0	0
328	0	0	2
328	78	1	3
328	157	1.000054	2
328	287	2	3
328	366	2.000054	2
328	488	3	3
328	567	3.000054	2
328	697	4	3
329	0	0	1
329	78	1	0
329	157	1.000054	2
329	202	1.000054760365	1
329	287	2	0
329	366	2.000054	2
329	411	2.000054760365	1
329	488	3	0
329	567	3.000054	2
329	612	3.000054760365	1
329	697	4	0
330	78	1	1
330	79	1	2
330	149	1.000054	1
330	157	1.000054	0
330	287	2	1
330	288	2	2
330	358	2.000054	1
330	366	2.000054	0
330	488	3	1
330	489	3	2
330	559	3.000054	1
330	567	3.000054	0
330	697	4	1
330	698	4	2
331	0	0	0
340	29	1	14
340	238	2	14
340	439	3	14
340	648	4	14
342	0	0	0
343	0	0	0
344	0	0	0
349	0	0	0
349	0	0	0
349	0	0	0
349	0	0	0
349	0	0	0
349	54	1	1
349	80	1	0
349	263	2	1
349	289	2	0
349	464	3	1
349	490	3	0
349	673	4	1
349	699	4	0
350	0	0	0
350	0	0	0
350	0	0	0
350	0	0	0
350	0	0	0
350	54	1	560
350	80	1	0
350	263	2	560
350	289	2	0
350	464	3	560
350	490	3	0
350	673	4	560
350	699	4	0
351	80	1	0
351	289	2	0
351	490	3	0
351	699	4	0
352	54	1	560
352	263	2	560
352	464	3	560
352	673	4	560
353	54	0.1	0
353	54	0.2	0
353	54	0.3	0
353	54	0.4	0
353	54	0.5	0
353	54	0.6	0
353	54	0.7	0
353	54	0.8	0
353	54	0.9	0
353	54	1	0
353	263	1.1	5600
353	263	1.2	0
353	263	1.3	0
353	263	1.4	0
353	263	1.5	0
353	263	1.6	0
353	263	1.7	0
353	263	1.8	0
353	263	1.9	0
353	263	2	0
353	464	2.1	5600
353	464	2.2	0
353	464	2.3	0
353	464	2.4	0
353	464	2.5	0
353	464	2.6	0
353	464	2.7	0
353	464	2.8	0
353	464	2.9	0
353	464	3	0
353	673	3.1	5600
353	673	3.2	0
353	673	3.3	0
353	673	3.4	0
353	673	3.5	0
353	673	3.6	0
353	673	3.7	0
353	673	3.8	0
353	673	3.9	0
353	673	4	0
354	80	1	560
354	289	2	560
354	490	3	560
354	699	4	560
355	80	0.1	0
355	80	0.2	0
355	80	0.3	0
355	80	0.4	0
355	80	0.5	0
355	80	0.6	0
355	80	0.7	0
355	80	0.8	0
355	80	0.9	0
355	80	1	0
355	289	1.1	5600
355	289	1.2	0
355	289	1.3	0
355	289	1.4	0
355	289	1.5	0
355	289	1.6	0
355	289	1.7	0
355	289	1.8	0
355	289	1.9	0
355	289	2	0
355	490	2.1	5600
355	490	2.2	0
355	490	2.3	0
355	490	2.4	0
355	490	2.5	0
355	490	2.6	0
355	490	2.7	0
355	490	2.8	0
355	490	2.9	0
355	490	3	0
355	699	3.1	5600
355	699	3.2	0
355	699	3.3	0
355	699	3.4	0
355	699	3.5	0
355	699	3.6	0
355	699	3.7	0
355	699	3.8	0
355	699	3.9	0
355	699	4	0
360	150	1.000054	5.4e-05
360	359	2.000054	5.4e-05
360	560	3.000054	5.4e-05
361	0	0	0
361	0	0	0
361	80	1	1
361	150	1.000054	0
361	289	2	1
361	359	2.000054	0
361	490	3	1
361	560	3.000054	0
361	699	4	1
362	54	1	8
362	263	2	15
362	464	3	29
362	673	4	25
363	0	0	0
363	0	0	0
363	54	1	1
363	62	1	0
363	263	2	1
363	271	2	0
363	464	3	1
363	472	3	0
363	673	4	1
363	681	4	0
364	0	0	0
364	0	0	0
364	54	1	0
364	54	1	2
364	62	1	2
364	62	1	0
364	81	1	0
364	81	1	0
364	197	1.000054700993	0
364	197	1.000054700993	0
364	263	2	0
364	263	2	2
364	271	2	2
364	271	2	0
364	290	2	0
364	290	2	0
364	406	2.000054700993	0
364	406	2.000054700993	0
364	464	3	0
364	464	3	2
364	472	3	2
364	472	3	0
364	491	3	0
364	491	3	0
364	607	3.000054700993	0
364	607	3.000054700993	0
364	673	4	0
364	673	4	2
364	681	4	2
364	681	4	0
364	700	4	0
364	700	4	0
366	0	0	31
367	150	1.000054	70
367	359	2.000054	70
367	560	3.000054	70
369	150	1.000054	70
369	359	2.000054	70
369	560	3.000054	70
370	150	1.000054	70
370	359	2.000054	70
370	560	3.000054	70
372	150	1.000054	70
372	359	2.000054	70
372	560	3.000054	70
383	0	0	0
383	0	0	0
383	80	1	1
383	150	1.000054	0
383	289	2	1
383	359	2.000054	0
383	490	3	1
383	560	3.000054	0
383	699	4	1
384	80	1	24000000
384	289	2	24000000
384	490	3	24000000
384	699	4	24000000
387	80	1	70
387	289	2	70
387	490	3	70
387	699	4	70
388	54	1	42
388	263	2	42
388	464	3	42
388	673	4	42
397	0	0	0
397	0	0	0
397	0	0	2
397	81	1	3
397	158	1.000054	2
397	290	2	3
397	367	2.000054	2
397	491	3	3
397	568	3.000054	2
397	700	4	3
398	0	0	1
398	81	1	0
398	158	1.000054	2
398	197	1.000054700993	1
398	290	2	0
398	367	2.000054	2
398	406	2.000054700993	1
398	491	3	0
398	568	3.000054	2
398	607	3.000054700993	1
398	700	4	0
399	81	1	1
399	82	1	2
399	150	1.000054	1
399	158	1.000054	0
399	290	2	1
399	291	2	2
399	359	2.000054	1
399	367	2.000054	0
399	491	3	1
399	492	3	2
399	560	3.000054	1
399	568	3.000054	0
399	700	4	1
399	701	4	2
400	0	0	0
409	30	1	14
409	239	2	14
409	440	3	14
409	649	4	14
411	0	0	0
412	0	0	0
413	0	0	0
418	0	0	0
418	0	0	0
418	0	0	0
418	0	0	0
418	0	0	0
418	55	1	1
418	83	1	0
418	264	2	1
418	292	2	0
418	465	3	1
418	493	3	0
418	674	4	1
418	702	4	0
419	0	0	0
419	0	0	0
419	0	0	0
419	0	0	0
419	0	0	0
419	55	1	560
419	83	1	0
419	264	2	560
419	292	2	0
419	465	3	560
419	493	3	0
419	674	4	560
419	702	4	0
420	83	1	0
420	292	2	0
420	493	3	0
420	702	4	0
421	55	1	560
421	264	2	560
421	465	3	560
421	674	4	560
422	55	0.1	0
422	55	0.2	0
422	55	0.3	0
422	55	0.4	0
422	55	0.5	0
422	55	0.6	0
422	55	0.7	0
422	55	0.8	0
422	55	0.9	0
422	55	1	0
422	264	1.1	5600
422	264	1.2	0
422	264	1.3	0
422	264	1.4	0
422	264	1.5	0
422	264	1.6	0
422	264	1.7	0
422	264	1.8	0
422	264	1.9	0
422	264	2	0
422	465	2.1	5600
422	465	2.2	0
422	465	2.3	0
422	465	2.4	0
422	465	2.5	0
422	465	2.6	0
422	465	2.7	0
422	465	2.8	0
422	465	2.9	0
422	465	3	0
422	674	3.1	5600
422	674	3.2	0
422	674	3.3	0
422	674	3.4	0
422	674	3.5	0
422	674	3.6	0
422	674	3.7	0
422	674	3.8	0
422	674	3.9	0
422	674	4	0
423	83	1	560
423	292	2	560
423	493	3	560
423	702	4	560
424	83	0.1	0
424	83	0.2	0
424	83	0.3	0
424	83	0.4	0
424	83	0.5	0
424	83	0.6	0
424	83	0.7	0
424	83	0.8	0
424	83	0.9	0
424	83	1	0
424	292	1.1	5600
424	292	1.2	0
424	292	1.3	0
424	292	1.4	0
424	292	1.5	0
424	292	1.6	0
424	292	1.7	0
424	292	1.8	0
424	292	1.9	0
424	292	2	0
424	493	2.1	5600
424	493	2.2	0
424	493	2.3	0
424	493	2.4	0
424	493	2.5	0
424	493	2.6	0
424	493	2.7	0
424	493	2.8	0
424	493	2.9	0
424	493	3	0
424	702	3.1	5600
424	702	3.2	0
424	702	3.3	0
424	702	3.4	0
424	702	3.5	0
424	702	3.6	0
424	702	3.7	0
424	702	3.8	0
424	702	3.9	0
424	702	4	0
429	151	1.000054	5.4e-05
429	360	2.000054	5.4e-05
429	561	3.000054	5.4e-05
430	0	0	0
430	0	0	0
430	83	1	1
430	151	1.000054	0
430	292	2	1
430	360	2.000054	0
430	493	3	1
430	561	3.000054	0
430	702	4	1
431	55	1	9
431	264	2	15
431	465	3	19
431	674	4	31
432	0	0	0
432	0	0	0
432	55	1	1
432	63	1	0
432	264	2	1
432	272	2	0
432	465	3	1
432	473	3	0
432	674	4	1
432	682	4	0
433	0	0	0
433	0	0	0
433	55	1	0
433	55	1	2
433	63	1	2
433	63	1	0
433	84	1	0
433	84	1	0
433	201	1.000054760365	0
433	201	1.000054760365	0
433	264	2	0
433	264	2	2
433	272	2	2
433	272	2	0
433	293	2	0
433	293	2	0
433	410	2.000054760365	0
433	410	2.000054760365	0
433	465	3	0
433	465	3	2
433	473	3	2
433	473	3	0
433	494	3	0
433	494	3	0
433	611	3.000054760365	0
433	611	3.000054760365	0
433	674	4	0
433	674	4	2
433	682	4	2
433	682	4	0
433	703	4	0
433	703	4	0
435	0	0	31
436	151	1.000054	70
436	360	2.000054	70
436	561	3.000054	70
438	151	1.000054	70
438	360	2.000054	70
438	561	3.000054	70
439	151	1.000054	70
439	360	2.000054	70
439	561	3.000054	70
441	151	1.000054	70
441	360	2.000054	70
441	561	3.000054	70
452	0	0	0
452	0	0	0
452	83	1	1
452	151	1.000054	0
452	292	2	1
452	360	2.000054	0
452	493	3	1
452	561	3.000054	0
452	702	4	1
453	83	1	24000000
453	292	2	24000000
453	493	3	24000000
453	702	4	24000000
456	83	1	70
456	292	2	70
456	493	3	70
456	702	4	70
457	55	1	42
457	264	2	42
457	465	3	42
457	674	4	42
466	0	0	0
466	0	0	0
466	0	0	2
466	84	1	3
466	159	1.000054	2
466	293	2	3
466	368	2.000054	2
466	494	3	3
466	569	3.000054	2
466	703	4	3
467	0	0	1
467	84	1	0
467	159	1.000054	2
467	201	1.000054760365	1
467	293	2	0
467	368	2.000054	2
467	410	2.000054760365	1
467	494	3	0
467	569	3.000054	2
467	611	3.000054760365	1
467	703	4	0
468	84	1	1
468	85	1	2
468	151	1.000054	1
468	159	1.000054	0
468	293	2	1
468	294	2	2
468	360	2.000054	1
468	368	2.000054	0
468	494	3	1
468	495	3	2
468	561	3.000054	1
468	569	3.000054	0
468	703	4	1
468	704	4	2
469	0	0	0
478	31	1	14
478	240	2	14
478	441	3	14
478	650	4	14
480	0	0	0
481	0	0	0
482	0	0	0
487	0	0	0
487	0	0	0
487	0	0	0
487	0	0	0
487	0	0	0
487	56	1	1
487	86	1	0
487	265	2	1
487	295	2	0
487	466	3	1
487	496	3	0
487	675	4	1
487	705	4	0
488	0	0	0
488	0	0	0
488	0	0	0
488	0	0	0
488	0	0	0
488	56	1	560
488	86	1	0
488	265	2	560
488	295	2	0
488	466	3	560
488	496	3	0
488	675	4	560
488	705	4	0
489	86	1	0
489	295	2	0
489	496	3	0
489	705	4	0
490	56	1	560
490	265	2	560
490	466	3	560
490	675	4	560
491	56	0.1	0
491	56	0.2	0
491	56	0.3	0
491	56	0.4	0
491	56	0.5	0
491	56	0.6	0
491	56	0.7	0
491	56	0.8	0
491	56	0.9	0
491	56	1	0
491	265	1.1	5600
491	265	1.2	0
491	265	1.3	0
491	265	1.4	0
491	265	1.5	0
491	265	1.6	0
491	265	1.7	0
491	265	1.8	0
491	265	1.9	0
491	265	2	0
491	466	2.1	5600
491	466	2.2	0
491	466	2.3	0
491	466	2.4	0
491	466	2.5	0
491	466	2.6	0
491	466	2.7	0
491	466	2.8	0
491	466	2.9	0
491	466	3	0
491	675	3.1	5600
491	675	3.2	0
491	675	3.3	0
491	675	3.4	0
491	675	3.5	0
491	675	3.6	0
491	675	3.7	0
491	675	3.8	0
491	675	3.9	0
491	675	4	0
492	86	1	560
492	295	2	560
492	496	3	560
492	705	4	560
493	86	0.1	0
493	86	0.2	0
493	86	0.3	0
493	86	0.4	0
493	86	0.5	0
493	86	0.6	0
493	86	0.7	0
493	86	0.8	0
493	86	0.9	0
493	86	1	0
493	295	1.1	5600
493	295	1.2	0
493	295	1.3	0
493	295	1.4	0
493	295	1.5	0
493	295	1.6	0
493	295	1.7	0
493	295	1.8	0
493	295	1.9	0
493	295	2	0
493	496	2.1	5600
493	496	2.2	0
493	496	2.3	0
493	496	2.4	0
493	496	2.5	0
493	496	2.6	0
493	496	2.7	0
493	496	2.8	0
493	496	2.9	0
493	496	3	0
493	705	3.1	5600
493	705	3.2	0
493	705	3.3	0
493	705	3.4	0
493	705	3.5	0
493	705	3.6	0
493	705	3.7	0
493	705	3.8	0
493	705	3.9	0
493	705	4	0
498	152	1.000054	5.4e-05
498	361	2.000054	5.4e-05
498	562	3.000054	5.4e-05
499	0	0	0
499	0	0	0
499	86	1	1
499	152	1.000054	0
499	295	2	1
499	361	2.000054	0
499	496	3	1
499	562	3.000054	0
499	705	4	1
500	56	1	20
500	265	2	0
500	466	3	19
500	675	4	0
501	0	0	0
501	0	0	0
501	56	1	1
501	64	1	0
501	265	2	1
501	273	2	0
501	466	3	1
501	474	3	0
501	675	4	1
501	683	4	0
502	0	0	0
502	0	0	0
502	56	1	0
502	56	1	2
502	64	1	2
502	64	1	0
502	87	1	0
502	87	1	0
502	205	1.000054788292	0
502	205	1.000054788292	0
502	265	2	0
502	265	2	2
502	273	2	2
502	273	2	0
502	296	2	0
502	296	2	0
502	414	2.000054788292	0
502	414	2.000054788292	0
502	466	3	0
502	466	3	2
502	474	3	2
502	474	3	0
502	497	3	0
502	497	3	0
502	615	3.000054788292	0
502	615	3.000054788292	0
502	675	4	0
502	675	4	2
502	683	4	2
502	683	4	0
502	706	4	0
502	706	4	0
504	0	0	31
505	152	1.000054	70
505	361	2.000054	70
505	562	3.000054	70
507	152	1.000054	70
507	361	2.000054	70
507	562	3.000054	70
508	152	1.000054	70
508	361	2.000054	70
508	562	3.000054	70
510	152	1.000054	70
510	361	2.000054	70
510	562	3.000054	70
521	0	0	0
521	0	0	0
521	86	1	1
521	152	1.000054	0
521	295	2	1
521	361	2.000054	0
521	496	3	1
521	562	3.000054	0
521	705	4	1
522	86	1	24000000
522	295	2	24000000
522	496	3	24000000
522	705	4	24000000
525	86	1	70
525	295	2	70
525	496	3	70
525	705	4	70
526	56	1	42
526	265	2	42
526	466	3	42
526	675	4	42
535	0	0	0
535	0	0	0
535	0	0	2
535	87	1	3
535	160	1.000054	2
535	296	2	3
535	369	2.000054	2
535	497	3	3
535	570	3.000054	2
535	706	4	3
536	0	0	1
536	87	1	0
536	160	1.000054	2
536	205	1.000054788292	1
536	296	2	0
536	369	2.000054	2
536	414	2.000054788292	1
536	497	3	0
536	570	3.000054	2
536	615	3.000054788292	1
536	706	4	0
537	87	1	1
537	88	1	2
537	152	1.000054	1
537	160	1.000054	0
537	296	2	1
537	297	2	2
537	361	2.000054	1
537	369	2.000054	0
537	497	3	1
537	498	3	2
537	562	3.000054	1
537	570	3.000054	0
537	706	4	1
537	707	4	2
538	0	0	0
547	32	1	14
547	241	2	14
547	442	3	14
547	651	4	14
549	0	0	0
550	0	0	0
551	0	0	0
8	707	4.000000161461	3468329813.3915
10	707	4.000000161461	3468329813.3915
77	707	4.000000161461	3468329813.3915
79	707	4.000000161461	3468329813.3915
146	707	4.000000161461	3468329813.3915
148	707	4.000000161461	3468329813.3915
215	707	4.000000161461	3468329813.3915
217	707	4.000000161461	3468329813.3915
284	707	4.000000161461	3468329813.3915
286	707	4.000000161461	3468329813.3915
353	707	4.000000161461	3468329813.3915
355	707	4.000000161461	3468329813.3915
422	707	4.000000161461	3468329813.3915
424	707	4.000000161461	3468329813.3915
491	707	4.000000161461	3468329813.3915
493	707	4.000000161461	3468329813.3915

