file 1927472 1770784853                                         
version 3
run General-0-20260210-22:38:23-10638
attr configname General
attr datetime 20260210-22:38:23
attr datetimef 20260210-223823
attr experiment General
attr inifile omnetpp.ini
attr iterationvars ""
attr iterationvarsd ""
attr iterationvarsf ""
attr measurement ""
attr network ZrpTestNetwork
attr processid 10638
attr repetition 0
attr replication #0
attr resultdir results
attr runnumber 0
attr seedset 0
config image-path ../../inet-4.5.4/images
config network ZrpTestNetwork
config sim-time-limit 100s
config *.configurator.addStaticRoutes false
config **.netmaskRoutes "\"\""
config **.arp.typename GlobalArp
config **.wlan[*].bitrate 24Mbps
config **.transmitter.power 1mW
config **.displayCommunicationRanges true
config **.constraintAreaMaxX 400m
config **.constraintAreaMaxY 400m
config **.constraintAreaMinX 0m
config **.constraintAreaMinY 0m
config *.*.numApps 1
config *.*.app[0].typename sa_zrp.Zrp
config *.*.app[0].zoneRadius 1
config *.*.app[0].NDP_helloInterval 1s
config *.*.app[0].IARP_updateInterval 2s
config *.*.app[0].linkStateLifetime 5s
config *.*.app[0].interface "\"wlan0\""
config *.*.app[0].debugInterval 5s
config *.source.numApps 2
config *.source.app[1].typename PingApp
config *.source.app[1].destAddr "\"destination\""
config *.source.app[1].startTime 10s
config *.source.app[1].sendInterval 1s
config *.source.app[1].printPing true
config *.visualizer.*.numDataLinkVisualizers 3
config *.visualizer.*.dataLinkVisualizer[*].activityLevel "\"peer\""
config *.visualizer.*.dataLinkVisualizer[*].displayLinks true
config *.visualizer.*.dataLinkVisualizer[0].packetFilter "\"NDP_Hello\""
config *.visualizer.*.dataLinkVisualizer[0].*Color "\"green\""
config *.visualizer.*.dataLinkVisualizer[1].packetFilter "\"IARP_LinkStateUpdate\""
config *.visualizer.*.dataLinkVisualizer[1].*Color "\"orange\""
config *.visualizer.*.dataLinkVisualizer[2].packetFilter "\"ping*\""
config *.visualizer.*.dataLinkVisualizer[2].*Color "\"blue\""
config *.visualizer.*.networkRouteVisualizer[0].displayRoutes true
config *.visualizer.*.networkRouteVisualizer[0].packetFilter "\"*ping*\""
config *.visualizer.*.routingTableVisualizer[0].displayRoutingTables true
config *.visualizer.*.routingTableVisualizer[0].displayLabels false
config *.visualizer.*.routingTableVisualizer[0].displayRoutesIndividually false
config *.visualizer.*.routingTableVisualizer[0].lineShift 0
config *.visualizer.*.interfaceTableVisualizer[0].displayInterfaceTables true
config *.visualizer.*.interfaceTableVisualizer[0].format "\"%a/%l\""
config *.visualizer.*.mediumVisualizer[0].displaySignals true
config *.visualizer.*.mediumVisualizer[0].signalPropagationAnimationSpeed 500
config *.visualizer.*.infoVisualizer[0].displayInfos true
config *.visualizer.*.infoVisualizer[0].modules "\"*.*.app[0]\""
config *.visualizer.*.infoVisualizer[0].format "\"N:%p, Z:%t\""

vector 0 ZrpTestNetwork.source.lo[0].lo rcvdPkFromHl:vector(packetBytes) ETV
attr interpolationmode none
attr recordingmode vector(packetBytes)
attr source packetReceivedFromUpper
attr title "packets received from higher layer, packetBytes"
vector 1 ZrpTestNetwork.source.lo[0].lo passedUpPk:vector(packetBytes) ETV
attr interpolationmode none
attr recordingmode vector(packetBytes)
attr source packetSentToUpper
attr title "packets passed to higher layer, packetBytes"
vector 2 ZrpTestNetwork.source.lo[0] packetDropInterfaceDown:vector(packetBytes) ETV
attr interpolationmode none
attr recordingmode vector(packetBytes)
attr source packetDropReasonIsInterfaceDown(packetDropped)
attr title "packet drops: interface down, packetBytes"
vector 3 ZrpTestNetwork.source.lo[0] packetDropNoCarrier:vector(packetBytes) ETV
attr interpolationmode none
attr recordingmode vector(packetBytes)
attr source packetDropReasonIsNoCarrier(packetDropped)
attr title "packet drops: no carrier, packetBytes"
vector 4 ZrpTestNetwork.source.wlan[0].mac.dcf.channelAccess.pendingQueue queueLength:vector ETV
attr autoWarmupFilter false
attr interpolationmode sample-hold
attr recordingmode vector
attr source "warmup(atomic(constant0(packetPushEnded) + count(packetPushStarted) - count(packetPulled) - count(packetRemoved) - count(packetDropped)))"
attr title "queue length"
attr unit pk
vector 5 ZrpTestNetwork.source.wlan[0].mac.dcf.channelAccess.pendingQueue queueBitLength:vector ETV
attr autoWarmupFilter false
attr interpolationmode sample-hold
attr recordingmode vector
attr source "warmup(atomic(constant0(packetPushEnded) + sum(packetLength(packetPushStarted)) - sum(packetLength(packetPulled)) - sum(packetLength(packetRemoved)) - sum(packetLength(packetDropped))))"
attr title "queue bit length"
attr unit b
vector 6 ZrpTestNetwork.source.wlan[0].mac.dcf.channelAccess.pendingQueue queueingTime:vector ETV
attr interpolationmode none
attr recordingmode vector
attr source queueingTime(packetPulled)
attr title "queueing times"
attr unit s
vector 7 ZrpTestNetwork.source.wlan[0].mac.dcf.channelAccess.pendingQueue incomingPacketLengths:vector ETV
attr interpolationmode none
attr recordingmode vector
attr source packetLength(packetPushStarted)
attr title "incoming packet lengths"
attr unit b
vector 8 ZrpTestNetwork.source.wlan[0].mac.dcf.channelAccess.pendingQueue incomingDataRate:vector ETV
attr interpolationmode linear
attr recordingmode vector
attr source throughput(packetPushStarted)
attr title "incoming datarate"
attr unit bps
vector 9 ZrpTestNetwork.source.wlan[0].mac.dcf.channelAccess.pendingQueue outgoingPacketLengths:vector ETV
attr interpolationmode none
attr recordingmode vector
attr source packetLength(packetPulled)
attr title "outgoing packet lengths"
attr unit b
vector 10 ZrpTestNetwork.source.wlan[0].mac.dcf.channelAccess.pendingQueue outgoingDataRate:vector ETV
attr interpolationmode linear
attr recordingmode vector
attr source throughput(packetPulled)
attr title "outgoing datarate"
attr unit bps
vector 11 ZrpTestNetwork.source.wlan[0].mac.dcf.channelAccess.pendingQueue droppedPacketLengthsQueueOverflow:vector ETV
attr interpolationmode none
attr recordingmode vector
attr source packetLength(packetDropReasonIsQueueOverflow(packetDropped))
attr title "dropped packet lengths: queue overflow"
attr unit b
vector 12 ZrpTestNetwork.source.wlan[0].mac.dcf.channelAccess.pendingQueue flowQueueingTime:vector ETV
attr interpolationmode none
attr recordingmode vector
attr source queueingTime(demuxFlow(packetPulled))
attr title "flow queueing times"
attr unit s
vector 13 ZrpTestNetwork.source.wlan[0].mac.dcf.channelAccess.pendingQueue flowIncomingDataRate:vector ETV
attr interpolationmode linear
attr recordingmode vector
attr source throughput(flowPacketLength(demuxFlow(packetPushStarted)))
attr title "flow specific incoming data rate"
attr unit bps
vector 14 ZrpTestNetwork.source.wlan[0].mac.dcf.channelAccess.pendingQueue flowOutgoingDataRate:vector ETV
attr interpolationmode linear
attr recordingmode vector
attr source throughput(flowPacketLength(demuxFlow(packetPulled)))
attr title "flow specific outgoing data rate"
attr unit bps
vector 15 ZrpTestNetwork.source.wlan[0].mac.dcf.channelAccess.inProgressFrames queueingTime:vector ETV
attr interpolationmode none
attr recordingmode vector
attr source queueingTime(packetDequeued)
attr title "queueing times"
vector 16 ZrpTestNetwork.source.wlan[0].mac.dcf.channelAccess.inProgressFrames queueLength:vector ETV
attr autoWarmupFilter false
attr interpolationmode sample-hold
attr recordingmode vector
attr source "warmup(count(packetEnqueued) - count(packetDequeued))"
attr title "queue length"
vector 17 ZrpTestNetwork.source.wlan[0].mac.dcf.channelAccess.contention backoffPeriodGenerated:vector ETV
attr interpolationmode none
attr recordingmode vector
attr title "backoff periods"
vector 18 ZrpTestNetwork.source.wlan[0].mac.dcf.channelAccess.contention backoffActive:vector ETV
attr autoWarmupFilter false
attr interpolationmode sample-hold
attr recordingmode vector
attr source warmup(count(backoffStarted)-count(backoffStopped))
attr title "backoff active"
vector 19 ZrpTestNetwork.source.wlan[0].mac.dcf.channelAccess.contention stateChanged:vector ETV
attr enum IDLE,DEFER,IFS_AND_BACKOFF
attr interpolationmode none
attr recordingmode vector
attr title "contention state changed"
attr type enum
vector 20 ZrpTestNetwork.source.wlan[0].mac.dcf.recipientMacDataService packetDropDuplicateDetected:vector(packetBytes) ETV
attr interpolationmode none
attr recordingmode vector(packetBytes)
attr source packetDropReasonIsDuplicateDetected(packetDropped)
attr title "packet drops: duplicate detected, packetBytes"
vector 21 ZrpTestNetwork.source.wlan[0].mac.dcf.recoveryProcedure contentionWindowChanged:vector ETV
attr interpolationmode sample-hold
attr recordingmode vector
attr title "contention window"
vector 22 ZrpTestNetwork.source.wlan[0].mac.dcf packetSentToPeer:vector(packetBytes) ETV
attr interpolationmode none
attr recordingmode vector(packetBytes)
attr title "packets sent, packetBytes"
vector 23 ZrpTestNetwork.source.wlan[0].mac.dcf packetSentToPeerUnicast:vector(packetBytes) ETV
attr interpolationmode none
attr recordingmode vector(packetBytes)
attr source ieee80211Unicast(packetSentToPeer)
attr title "packets sent: unicast, packetBytes"
vector 24 ZrpTestNetwork.source.wlan[0].mac.dcf packetSentToPeerMulticast:vector(packetBytes) ETV
attr interpolationmode none
attr recordingmode vector(packetBytes)
attr source ieee80211Multicast(packetSentToPeer)
attr title "packets sent: multicast, packetBytes"
vector 25 ZrpTestNetwork.source.wlan[0].mac.dcf packetSentToPeerBroadcast:vector(packetBytes) ETV
attr interpolationmode none
attr recordingmode vector(packetBytes)
attr source ieee80211Broadcast(packetSentToPeer)
attr title "packets sent: broadcast , packetBytes"
vector 26 ZrpTestNetwork.source.wlan[0].mac.dcf packetSentToPeerWithRetry:vector(packetBytes) ETV
attr interpolationmode none
attr recordingmode vector(packetBytes)
attr source ieee80211Retry(packetSentToPeer)
attr title "packets sent: with retry, packetBytes"
vector 27 ZrpTestNetwork.source.wlan[0].mac.dcf packetSentToPeerWithoutRetry:vector(packetBytes) ETV
attr interpolationmode none
attr recordingmode vector(packetBytes)
attr source ieee80211NotRetry(packetSentToPeer)
attr title "packets sent: without retry, packetBytes"
vector 28 ZrpTestNetwork.source.wlan[0].mac.dcf packetReceivedFromPeer:vector(packetBytes) ETV
attr interpolationmode none
attr recordingmode vector(packetBytes)
attr title "packets received, packetBytes"
vector 29 ZrpTestNetwork.source.wlan[0].mac.dcf packetReceivedFromPeerUnicast:vector(packetBytes) ETV
attr interpolationmode none
attr recordingmode vector(packetBytes)
attr source ieee80211Unicast(packetReceivedFromPeer)
attr title "packets received: unicast, packetBytes"
vector 30 ZrpTestNetwork.source.wlan[0].mac.dcf packetReceivedFromPeerMulticast:vector(packetBytes) ETV
attr interpolationmode none
attr recordingmode vector(packetBytes)
attr source ieee80211Multicast(packetReceivedFromPeer)
attr title "packets received: multicast, packetBytes"
vector 31 ZrpTestNetwork.source.wlan[0].mac.dcf packetReceivedFromPeerBroadcast:vector(packetBytes) ETV
attr interpolationmode none
attr recordingmode vector(packetBytes)
attr source ieee80211Broadcast(packetReceivedFromPeer)
attr title "packets received: broadcast, packetBytes"
vector 32 ZrpTestNetwork.source.wlan[0].mac.dcf packetReceivedFromPeerWithRetry:vector(packetBytes) ETV
attr interpolationmode none
attr recordingmode vector(packetBytes)
attr source ieee80211Retry(packetReceivedFromPeer)
attr title "packets received: with retry, packetBytes"
vector 33 ZrpTestNetwork.source.wlan[0].mac.dcf packetReceivedFromPeerWithoutRetry:vector(packetBytes) ETV
attr interpolationmode none
attr recordingmode vector(packetBytes)
attr source ieee80211NotRetry(packetReceivedFromPeer)
attr title "packets received: without retry, packetBytes"
vector 34 ZrpTestNetwork.source.wlan[0].mac.dcf packetDrop:vector(packetBytes) ETV
attr interpolationmode none
attr recordingmode vector(packetBytes)
attr source packetDropped
attr title "packet drops, packetBytes"
vector 35 ZrpTestNetwork.source.wlan[0].mac.dcf packetDropNotAddressedToUs:vector(packetBytes) ETV
attr interpolationmode none
attr recordingmode vector(packetBytes)
attr source packetDropReasonIsNotAddressedToUs(packetDropped)
attr title "packet drops: not addressed to us, packetBytes"
vector 36 ZrpTestNetwork.source.wlan[0].mac.dcf packetDropQueueOverflow:vector(packetBytes) ETV
attr interpolationmode none
attr recordingmode vector(packetBytes)
attr source packetDropReasonIsQueueOverflow(packetDropped)
attr title "packet drops: queue overflow, packetBytes"
vector 37 ZrpTestNetwork.source.wlan[0].mac.dcf packetDropRetryLimitReached:vector(packetBytes) ETV
attr interpolationmode none
attr recordingmode vector(packetBytes)
attr source packetDropReasonIsRetryLimitReached(packetDropped)
attr title "packet drops: retry limit reached, packetBytes"
vector 38 ZrpTestNetwork.source.wlan[0].mac.dcf frameSequenceActive:vector ETV
attr autoWarmupFilter false
attr interpolationmode sample-hold
attr recordingmode vector
attr source warmup(count(frameSequenceStarted)-count(frameSequenceFinished))
attr title "frame sequence active"
vector 39 ZrpTestNetwork.source.wlan[0].mac.dcf datarateSelected:vector ETV
attr interpolationmode none
attr recordingmode vector
attr title "datarates selected"
vector 40 ZrpTestNetwork.source.wlan[0].mac.rx nav:vector ETV
attr interpolationmode linear
attr recordingmode vector
attr source navChanged
attr title "network allocation vector"
vector 41 ZrpTestNetwork.source.wlan[0].mac packetSentToUpper:vector(packetBytes) ETV
attr interpolationmode none
attr recordingmode vector(packetBytes)
attr title "packets sent to upper layer, packetBytes"
vector 42 ZrpTestNetwork.source.wlan[0].mac packetSentToLower:vector(packetBytes) ETV
attr interpolationmode none
attr recordingmode vector(packetBytes)
attr title "packets sent to lower layer, packetBytes"
vector 43 ZrpTestNetwork.source.wlan[0].mac packetReceivedFromUpper:vector(packetBytes) ETV
attr interpolationmode none
attr recordingmode vector(packetBytes)
attr title "packets received from upper layer, packetBytes"
vector 44 ZrpTestNetwork.source.wlan[0].mac packetReceivedFromLower:vector(packetBytes) ETV
attr interpolationmode none
attr recordingmode vector(packetBytes)
attr title "packets received from lower layer, packetBytes"
vector 45 ZrpTestNetwork.source.wlan[0].mac packetDrop:vector(packetBytes) ETV
attr interpolationmode none
attr recordingmode vector(packetBytes)
attr source packetDropped
attr title "packet drops, packetBytes"
vector 46 ZrpTestNetwork.source.wlan[0].mac packetDropIncorrectlyReceived:vector(packetBytes) ETV
attr interpolationmode none
attr recordingmode vector(packetBytes)
attr source packetDropReasonIsIncorrectlyReceived(packetDropped)
attr title "packet drops: incorrectly received, packetBytes"
vector 47 ZrpTestNetwork.source.wlan[0].mac packetDropNotAddressedToUs:vector(packetBytes) ETV
attr interpolationmode none
attr recordingmode vector(packetBytes)
attr source packetDropReasonIsNotAddressedToUs(packetDropped)
attr title "packet drops: not addressed to us, packetBytes"
vector 48 ZrpTestNetwork.source.wlan[0].mac packetDropQueueOverflow:vector(packetBytes) ETV
attr interpolationmode none
attr recordingmode vector(packetBytes)
attr source packetDropReasonIsQueueOverflow(packetDropped)
attr title "packet drops: queue overflow, packetBytes"
vector 49 ZrpTestNetwork.source.wlan[0].mac packetDropRetryLimitReached:vector(packetBytes) ETV
attr interpolationmode none
attr recordingmode vector(packetBytes)
attr source packetDropReasonIsRetryLimitReached(packetDropped)
attr title "packet drops: retry limit reached, packetBytes"
vector 50 ZrpTestNetwork.source.wlan[0].mac packetDropDuplicateDetected:vector(packetBytes) ETV
attr interpolationmode none
attr recordingmode vector(packetBytes)
attr source packetDropReasonIsDuplicateDetected(packetDropped)
attr title "packet drops: duplicate detected, packetBytes"
vector 51 ZrpTestNetwork.source.wlan[0].mac packetDropOther:vector(packetBytes) ETV
attr interpolationmode none
attr recordingmode vector(packetBytes)
attr source packetDropReasonIsOther(packetDropped)
attr title "packet drops: other, packetBytes"
vector 52 ZrpTestNetwork.source.wlan[0].radio radioMode:vector ETV
attr interpolationmode sample-hold
attr recordingmode vector
attr source radioModeChanged
attr title "Radio mode"
vector 53 ZrpTestNetwork.source.wlan[0].radio receptionState:vector ETV
attr interpolationmode sample-hold
attr recordingmode vector
attr source receptionStateChanged
attr title "Radio reception state"
vector 54 ZrpTestNetwork.source.wlan[0].radio transmissionState:vector ETV
attr interpolationmode sample-hold
attr recordingmode vector
attr source transmissionStateChanged
attr title "Radio transmission state"
vector 55 ZrpTestNetwork.source.wlan[0].radio radioChannel:vector ETV
attr interpolationmode sample-hold
attr recordingmode vector
attr source radioChannelChanged
attr title "Radio channel"
vector 56 ZrpTestNetwork.source.wlan[0] packetDropInterfaceDown:vector(packetBytes) ETV
attr interpolationmode none
attr recordingmode vector(packetBytes)
attr source packetDropReasonIsInterfaceDown(packetDropped)
attr title "packet drops: interface down, packetBytes"
vector 57 ZrpTestNetwork.source.wlan[0] packetDropNoCarrier:vector(packetBytes) ETV
attr interpolationmode none
attr recordingmode vector(packetBytes)
attr source packetDropReasonIsNoCarrier(packetDropped)
attr title "packet drops: no carrier, packetBytes"
vector 58 ZrpTestNetwork.source.ipv4.ip packetDropAddressResolutionFailed:vector(packetBytes) ETV
attr interpolationmode none
attr recordingmode vector(packetBytes)
attr source packetDropReasonIsAddressResolutionFailed(packetDropped)
attr title "packet drop: address resolution failed, packetBytes"
vector 59 ZrpTestNetwork.source.ipv4.ip packetDropHopLimitReached:vector(packetBytes) ETV
attr interpolationmode none
attr recordingmode vector(packetBytes)
attr source packetDropReasonIsHopLimitReached(packetDropped)
attr title "packet drop: hop limit reached, packetBytes"
vector 60 ZrpTestNetwork.source.ipv4.ip packetDropForwardingDisabled:vector(packetBytes) ETV
attr interpolationmode none
attr recordingmode vector(packetBytes)
attr source packetDropReasonIsForwardingDisabled(packetDropped)
attr title "packet drop: forwarding disabled, packetBytes"
vector 61 ZrpTestNetwork.source.ipv4.ip packetDropNoInterfaceFound:vector(packetBytes) ETV
attr interpolationmode none
attr recordingmode vector(packetBytes)
attr source packetDropReasonIsNoInterfaceFound(packetDropped)
attr title "packet drop: no interface found, packetBytes"
vector 62 ZrpTestNetwork.source.ipv4.ip packetDropNoRouteFound:vector(packetBytes) ETV
attr interpolationmode none
attr recordingmode vector(packetBytes)
attr source packetDropReasonIsNoRouteFound(packetDropped)
attr title "packet drop: no route found, packetBytes"
vector 63 ZrpTestNetwork.source.ipv4.ip packetDropUndefined:vector(packetBytes) ETV
attr interpolationmode none
attr recordingmode vector(packetBytes)
attr source packetDropReasonIsUndefined(packetDropped)
attr title "packet drop: undefined, packetBytes"
vector 64 ZrpTestNetwork.source.udp packetSent:vector(packetBytes) ETV
attr interpolationmode none
attr recordingmode vector(packetBytes)
attr source packetSent
attr title "packets sent, packetBytes"
vector 65 ZrpTestNetwork.source.udp packetReceived:vector(packetBytes) ETV
attr interpolationmode none
attr recordingmode vector(packetBytes)
attr source packetReceived
attr title "packets received, packetBytes"
vector 66 ZrpTestNetwork.source.udp passedUpPk:vector(count) ETV
attr interpolationmode none
attr recordingmode vector(count)
attr source packetSentToUpper
attr title "packets passed up, count"
vector 67 ZrpTestNetwork.source.udp droppedPkWrongPort:vector(count) ETV
attr interpolationmode none
attr recordingmode vector(count)
attr source packetDropReasonIsNoPortFound(packetDropped)
attr title "packets dropped (wrong port), count"
vector 68 ZrpTestNetwork.source.udp droppedPkBadChecksum:vector(count) ETV
attr interpolationmode none
attr recordingmode vector(count)
attr source packetDropReasonIsIncorrectlyReceived(packetDropped)
attr title "packets dropped (checksum error), count"
vector 69 ZrpTestNetwork.destination.lo[0].lo rcvdPkFromHl:vector(packetBytes) ETV
attr interpolationmode none
attr recordingmode vector(packetBytes)
attr source packetReceivedFromUpper
attr title "packets received from higher layer, packetBytes"
vector 70 ZrpTestNetwork.destination.lo[0].lo passedUpPk:vector(packetBytes) ETV
attr interpolationmode none
attr recordingmode vector(packetBytes)
attr source packetSentToUpper
attr title "packets passed to higher layer, packetBytes"
vector 71 ZrpTestNetwork.destination.lo[0] packetDropInterfaceDown:vector(packetBytes) ETV
attr interpolationmode none
attr recordingmode vector(packetBytes)
attr source packetDropReasonIsInterfaceDown(packetDropped)
attr title "packet drops: interface down, packetBytes"
vector 72 ZrpTestNetwork.destination.lo[0] packetDropNoCarrier:vector(packetBytes) ETV
attr interpolationmode none
attr recordingmode vector(packetBytes)
attr source packetDropReasonIsNoCarrier(packetDropped)
attr title "packet drops: no carrier, packetBytes"
vector 73 ZrpTestNetwork.destination.wlan[0].mac.dcf.channelAccess.pendingQueue queueLength:vector ETV
attr autoWarmupFilter false
attr interpolationmode sample-hold
attr recordingmode vector
attr source "warmup(atomic(constant0(packetPushEnded) + count(packetPushStarted) - count(packetPulled) - count(packetRemoved) - count(packetDropped)))"
attr title "queue length"
attr unit pk
vector 74 ZrpTestNetwork.destination.wlan[0].mac.dcf.channelAccess.pendingQueue queueBitLength:vector ETV
attr autoWarmupFilter false
attr interpolationmode sample-hold
attr recordingmode vector
attr source "warmup(atomic(constant0(packetPushEnded) + sum(packetLength(packetPushStarted)) - sum(packetLength(packetPulled)) - sum(packetLength(packetRemoved)) - sum(packetLength(packetDropped))))"
attr title "queue bit length"
attr unit b
vector 75 ZrpTestNetwork.destination.wlan[0].mac.dcf.channelAccess.pendingQueue queueingTime:vector ETV
attr interpolationmode none
attr recordingmode vector
attr source queueingTime(packetPulled)
attr title "queueing times"
attr unit s
vector 76 ZrpTestNetwork.destination.wlan[0].mac.dcf.channelAccess.pendingQueue incomingPacketLengths:vector ETV
attr interpolationmode none
attr recordingmode vector
attr source packetLength(packetPushStarted)
attr title "incoming packet lengths"
attr unit b
vector 77 ZrpTestNetwork.destination.wlan[0].mac.dcf.channelAccess.pendingQueue incomingDataRate:vector ETV
attr interpolationmode linear
attr recordingmode vector
attr source throughput(packetPushStarted)
attr title "incoming datarate"
attr unit bps
vector 78 ZrpTestNetwork.destination.wlan[0].mac.dcf.channelAccess.pendingQueue outgoingPacketLengths:vector ETV
attr interpolationmode none
attr recordingmode vector
attr source packetLength(packetPulled)
attr title "outgoing packet lengths"
attr unit b
vector 79 ZrpTestNetwork.destination.wlan[0].mac.dcf.channelAccess.pendingQueue outgoingDataRate:vector ETV
attr interpolationmode linear
attr recordingmode vector
attr source throughput(packetPulled)
attr title "outgoing datarate"
attr unit bps
vector 80 ZrpTestNetwork.destination.wlan[0].mac.dcf.channelAccess.pendingQueue droppedPacketLengthsQueueOverflow:vector ETV
attr interpolationmode none
attr recordingmode vector
attr source packetLength(packetDropReasonIsQueueOverflow(packetDropped))
attr title "dropped packet lengths: queue overflow"
attr unit b
vector 81 ZrpTestNetwork.destination.wlan[0].mac.dcf.channelAccess.pendingQueue flowQueueingTime:vector ETV
attr interpolationmode none
attr recordingmode vector
attr source queueingTime(demuxFlow(packetPulled))
attr title "flow queueing times"
attr unit s
vector 82 ZrpTestNetwork.destination.wlan[0].mac.dcf.channelAccess.pendingQueue flowIncomingDataRate:vector ETV
attr interpolationmode linear
attr recordingmode vector
attr source throughput(flowPacketLength(demuxFlow(packetPushStarted)))
attr title "flow specific incoming data rate"
attr unit bps
vector 83 ZrpTestNetwork.destination.wlan[0].mac.dcf.channelAccess.pendingQueue flowOutgoingDataRate:vector ETV
attr interpolationmode linear
attr recordingmode vector
attr source throughput(flowPacketLength(demuxFlow(packetPulled)))
attr title "flow specific outgoing data rate"
attr unit bps
vector 84 ZrpTestNetwork.destination.wlan[0].mac.dcf.channelAccess.inProgressFrames queueingTime:vector ETV
attr interpolationmode none
attr recordingmode vector
attr source queueingTime(packetDequeued)
attr title "queueing times"
vector 85 ZrpTestNetwork.destination.wlan[0].mac.dcf.channelAccess.inProgressFrames queueLength:vector ETV
attr autoWarmupFilter false
attr interpolationmode sample-hold
attr recordingmode vector
attr source "warmup(count(packetEnqueued) - count(packetDequeued))"
attr title "queue length"
vector 86 ZrpTestNetwork.destination.wlan[0].mac.dcf.channelAccess.contention backoffPeriodGenerated:vector ETV
attr interpolationmode none
attr recordingmode vector
attr title "backoff periods"
vector 87 ZrpTestNetwork.destination.wlan[0].mac.dcf.channelAccess.contention backoffActive:vector ETV
attr autoWarmupFilter false
attr interpolationmode sample-hold
attr recordingmode vector
attr source warmup(count(backoffStarted)-count(backoffStopped))
attr title "backoff active"
vector 88 ZrpTestNetwork.destination.wlan[0].mac.dcf.channelAccess.contention stateChanged:vector ETV
attr enum IDLE,DEFER,IFS_AND_BACKOFF
attr interpolationmode none
attr recordingmode vector
attr title "contention state changed"
attr type enum
vector 89 ZrpTestNetwork.destination.wlan[0].mac.dcf.recipientMacDataService packetDropDuplicateDetected:vector(packetBytes) ETV
attr interpolationmode none
attr recordingmode vector(packetBytes)
attr source packetDropReasonIsDuplicateDetected(packetDropped)
attr title "packet drops: duplicate detected, packetBytes"
vector 90 ZrpTestNetwork.destination.wlan[0].mac.dcf.recoveryProcedure contentionWindowChanged:vector ETV
attr interpolationmode sample-hold
attr recordingmode vector
attr title "contention window"
vector 91 ZrpTestNetwork.destination.wlan[0].mac.dcf packetSentToPeer:vector(packetBytes) ETV
attr interpolationmode none
attr recordingmode vector(packetBytes)
attr title "packets sent, packetBytes"
vector 92 ZrpTestNetwork.destination.wlan[0].mac.dcf packetSentToPeerUnicast:vector(packetBytes) ETV
attr interpolationmode none
attr recordingmode vector(packetBytes)
attr source ieee80211Unicast(packetSentToPeer)
attr title "packets sent: unicast, packetBytes"
vector 93 ZrpTestNetwork.destination.wlan[0].mac.dcf packetSentToPeerMulticast:vector(packetBytes) ETV
attr interpolationmode none
attr recordingmode vector(packetBytes)
attr source ieee80211Multicast(packetSentToPeer)
attr title "packets sent: multicast, packetBytes"
vector 94 ZrpTestNetwork.destination.wlan[0].mac.dcf packetSentToPeerBroadcast:vector(packetBytes) ETV
attr interpolationmode none
attr recordingmode vector(packetBytes)
attr source ieee80211Broadcast(packetSentToPeer)
attr title "packets sent: broadcast , packetBytes"
vector 95 ZrpTestNetwork.destination.wlan[0].mac.dcf packetSentToPeerWithRetry:vector(packetBytes) ETV
attr interpolationmode none
attr recordingmode vector(packetBytes)
attr source ieee80211Retry(packetSentToPeer)
attr title "packets sent: with retry, packetBytes"
vector 96 ZrpTestNetwork.destination.wlan[0].mac.dcf packetSentToPeerWithoutRetry:vector(packetBytes) ETV
attr interpolationmode none
attr recordingmode vector(packetBytes)
attr source ieee80211NotRetry(packetSentToPeer)
attr title "packets sent: without retry, packetBytes"
vector 97 ZrpTestNetwork.destination.wlan[0].mac.dcf packetReceivedFromPeer:vector(packetBytes) ETV
attr interpolationmode none
attr recordingmode vector(packetBytes)
attr title "packets received, packetBytes"
vector 98 ZrpTestNetwork.destination.wlan[0].mac.dcf packetReceivedFromPeerUnicast:vector(packetBytes) ETV
attr interpolationmode none
attr recordingmode vector(packetBytes)
attr source ieee80211Unicast(packetReceivedFromPeer)
attr title "packets received: unicast, packetBytes"
vector 99 ZrpTestNetwork.destination.wlan[0].mac.dcf packetReceivedFromPeerMulticast:vector(packetBytes) ETV
attr interpolationmode none
attr recordingmode vector(packetBytes)
attr source ieee80211Multicast(packetReceivedFromPeer)
attr title "packets received: multicast, packetBytes"
vector 100 ZrpTestNetwork.destination.wlan[0].mac.dcf packetReceivedFromPeerBroadcast:vector(packetBytes) ETV
attr interpolationmode none
attr recordingmode vector(packetBytes)
attr source ieee80211Broadcast(packetReceivedFromPeer)
attr title "packets received: broadcast, packetBytes"
vector 101 ZrpTestNetwork.destination.wlan[0].mac.dcf packetReceivedFromPeerWithRetry:vector(packetBytes) ETV
attr interpolationmode none
attr recordingmode vector(packetBytes)
attr source ieee80211Retry(packetReceivedFromPeer)
attr title "packets received: with retry, packetBytes"
vector 102 ZrpTestNetwork.destination.wlan[0].mac.dcf packetReceivedFromPeerWithoutRetry:vector(packetBytes) ETV
attr interpolationmode none
attr recordingmode vector(packetBytes)
attr source ieee80211NotRetry(packetReceivedFromPeer)
attr title "packets received: without retry, packetBytes"
vector 103 ZrpTestNetwork.destination.wlan[0].mac.dcf packetDrop:vector(packetBytes) ETV
attr interpolationmode none
attr recordingmode vector(packetBytes)
attr source packetDropped
attr title "packet drops, packetBytes"
vector 104 ZrpTestNetwork.destination.wlan[0].mac.dcf packetDropNotAddressedToUs:vector(packetBytes) ETV
attr interpolationmode none
attr recordingmode vector(packetBytes)
attr source packetDropReasonIsNotAddressedToUs(packetDropped)
attr title "packet drops: not addressed to us, packetBytes"
vector 105 ZrpTestNetwork.destination.wlan[0].mac.dcf packetDropQueueOverflow:vector(packetBytes) ETV
attr interpolationmode none
attr recordingmode vector(packetBytes)
attr source packetDropReasonIsQueueOverflow(packetDropped)
attr title "packet drops: queue overflow, packetBytes"
vector 106 ZrpTestNetwork.destination.wlan[0].mac.dcf packetDropRetryLimitReached:vector(packetBytes) ETV
attr interpolationmode none
attr recordingmode vector(packetBytes)
attr source packetDropReasonIsRetryLimitReached(packetDropped)
attr title "packet drops: retry limit reached, packetBytes"
vector 107 ZrpTestNetwork.destination.wlan[0].mac.dcf frameSequenceActive:vector ETV
attr autoWarmupFilter false
attr interpolationmode sample-hold
attr recordingmode vector
attr source warmup(count(frameSequenceStarted)-count(frameSequenceFinished))
attr title "frame sequence active"
vector 108 ZrpTestNetwork.destination.wlan[0].mac.dcf datarateSelected:vector ETV
attr interpolationmode none
attr recordingmode vector
attr title "datarates selected"
vector 109 ZrpTestNetwork.destination.wlan[0].mac.rx nav:vector ETV
attr interpolationmode linear
attr recordingmode vector
attr source navChanged
attr title "network allocation vector"
vector 110 ZrpTestNetwork.destination.wlan[0].mac packetSentToUpper:vector(packetBytes) ETV
attr interpolationmode none
attr recordingmode vector(packetBytes)
attr title "packets sent to upper layer, packetBytes"
vector 111 ZrpTestNetwork.destination.wlan[0].mac packetSentToLower:vector(packetBytes) ETV
attr interpolationmode none
attr recordingmode vector(packetBytes)
attr title "packets sent to lower layer, packetBytes"
vector 112 ZrpTestNetwork.destination.wlan[0].mac packetReceivedFromUpper:vector(packetBytes) ETV
attr interpolationmode none
attr recordingmode vector(packetBytes)
attr title "packets received from upper layer, packetBytes"
vector 113 ZrpTestNetwork.destination.wlan[0].mac packetReceivedFromLower:vector(packetBytes) ETV
attr interpolationmode none
attr recordingmode vector(packetBytes)
attr title "packets received from lower layer, packetBytes"
vector 114 ZrpTestNetwork.destination.wlan[0].mac packetDrop:vector(packetBytes) ETV
attr interpolationmode none
attr recordingmode vector(packetBytes)
attr source packetDropped
attr title "packet drops, packetBytes"
vector 115 ZrpTestNetwork.destination.wlan[0].mac packetDropIncorrectlyReceived:vector(packetBytes) ETV
attr interpolationmode none
attr recordingmode vector(packetBytes)
attr source packetDropReasonIsIncorrectlyReceived(packetDropped)
attr title "packet drops: incorrectly received, packetBytes"
vector 116 ZrpTestNetwork.destination.wlan[0].mac packetDropNotAddressedToUs:vector(packetBytes) ETV
attr interpolationmode none
attr recordingmode vector(packetBytes)
attr source packetDropReasonIsNotAddressedToUs(packetDropped)
attr title "packet drops: not addressed to us, packetBytes"
vector 117 ZrpTestNetwork.destination.wlan[0].mac packetDropQueueOverflow:vector(packetBytes) ETV
attr interpolationmode none
attr recordingmode vector(packetBytes)
attr source packetDropReasonIsQueueOverflow(packetDropped)
attr title "packet drops: queue overflow, packetBytes"
vector 118 ZrpTestNetwork.destination.wlan[0].mac packetDropRetryLimitReached:vector(packetBytes) ETV
attr interpolationmode none
attr recordingmode vector(packetBytes)
attr source packetDropReasonIsRetryLimitReached(packetDropped)
attr title "packet drops: retry limit reached, packetBytes"
vector 119 ZrpTestNetwork.destination.wlan[0].mac packetDropDuplicateDetected:vector(packetBytes) ETV
attr interpolationmode none
attr recordingmode vector(packetBytes)
attr source packetDropReasonIsDuplicateDetected(packetDropped)
attr title "packet drops: duplicate detected, packetBytes"
vector 120 ZrpTestNetwork.destination.wlan[0].mac packetDropOther:vector(packetBytes) ETV
attr interpolationmode none
attr recordingmode vector(packetBytes)
attr source packetDropReasonIsOther(packetDropped)
attr title "packet drops: other, packetBytes"
vector 121 ZrpTestNetwork.destination.wlan[0].radio radioMode:vector ETV
attr interpolationmode sample-hold
attr recordingmode vector
attr source radioModeChanged
attr title "Radio mode"
vector 122 ZrpTestNetwork.destination.wlan[0].radio receptionState:vector ETV
attr interpolationmode sample-hold
attr recordingmode vector
attr source receptionStateChanged
attr title "Radio reception state"
vector 123 ZrpTestNetwork.destination.wlan[0].radio transmissionState:vector ETV
attr interpolationmode sample-hold
attr recordingmode vector
attr source transmissionStateChanged
attr title "Radio transmission state"
vector 124 ZrpTestNetwork.destination.wlan[0].radio radioChannel:vector ETV
attr interpolationmode sample-hold
attr recordingmode vector
attr source radioChannelChanged
attr title "Radio channel"
vector 125 ZrpTestNetwork.destination.wlan[0] packetDropInterfaceDown:vector(packetBytes) ETV
attr interpolationmode none
attr recordingmode vector(packetBytes)
attr source packetDropReasonIsInterfaceDown(packetDropped)
attr title "packet drops: interface down, packetBytes"
vector 126 ZrpTestNetwork.destination.wlan[0] packetDropNoCarrier:vector(packetBytes) ETV
attr interpolationmode none
attr recordingmode vector(packetBytes)
attr source packetDropReasonIsNoCarrier(packetDropped)
attr title "packet drops: no carrier, packetBytes"
vector 127 ZrpTestNetwork.destination.ipv4.ip packetDropAddressResolutionFailed:vector(packetBytes) ETV
attr interpolationmode none
attr recordingmode vector(packetBytes)
attr source packetDropReasonIsAddressResolutionFailed(packetDropped)
attr title "packet drop: address resolution failed, packetBytes"
vector 128 ZrpTestNetwork.destination.ipv4.ip packetDropHopLimitReached:vector(packetBytes) ETV
attr interpolationmode none
attr recordingmode vector(packetBytes)
attr source packetDropReasonIsHopLimitReached(packetDropped)
attr title "packet drop: hop limit reached, packetBytes"
vector 129 ZrpTestNetwork.destination.ipv4.ip packetDropForwardingDisabled:vector(packetBytes) ETV
attr interpolationmode none
attr recordingmode vector(packetBytes)
attr source packetDropReasonIsForwardingDisabled(packetDropped)
attr title "packet drop: forwarding disabled, packetBytes"
vector 130 ZrpTestNetwork.destination.ipv4.ip packetDropNoInterfaceFound:vector(packetBytes) ETV
attr interpolationmode none
attr recordingmode vector(packetBytes)
attr source packetDropReasonIsNoInterfaceFound(packetDropped)
attr title "packet drop: no interface found, packetBytes"
vector 131 ZrpTestNetwork.destination.ipv4.ip packetDropNoRouteFound:vector(packetBytes) ETV
attr interpolationmode none
attr recordingmode vector(packetBytes)
attr source packetDropReasonIsNoRouteFound(packetDropped)
attr title "packet drop: no route found, packetBytes"
vector 132 ZrpTestNetwork.destination.ipv4.ip packetDropUndefined:vector(packetBytes) ETV
attr interpolationmode none
attr recordingmode vector(packetBytes)
attr source packetDropReasonIsUndefined(packetDropped)
attr title "packet drop: undefined, packetBytes"
vector 133 ZrpTestNetwork.destination.udp packetSent:vector(packetBytes) ETV
attr interpolationmode none
attr recordingmode vector(packetBytes)
attr source packetSent
attr title "packets sent, packetBytes"
vector 134 ZrpTestNetwork.destination.udp packetReceived:vector(packetBytes) ETV
attr interpolationmode none
attr recordingmode vector(packetBytes)
attr source packetReceived
attr title "packets received, packetBytes"
vector 135 ZrpTestNetwork.destination.udp passedUpPk:vector(count) ETV
attr interpolationmode none
attr recordingmode vector(count)
attr source packetSentToUpper
attr title "packets passed up, count"
vector 136 ZrpTestNetwork.destination.udp droppedPkWrongPort:vector(count) ETV
attr interpolationmode none
attr recordingmode vector(count)
attr source packetDropReasonIsNoPortFound(packetDropped)
attr title "packets dropped (wrong port), count"
vector 137 ZrpTestNetwork.destination.udp droppedPkBadChecksum:vector(count) ETV
attr interpolationmode none
attr recordingmode vector(count)
attr source packetDropReasonIsIncorrectlyReceived(packetDropped)
attr title "packets dropped (checksum error), count"
vector 138 ZrpTestNetwork.node1.lo[0].lo rcvdPkFromHl:vector(packetBytes) ETV
attr interpolationmode none
attr recordingmode vector(packetBytes)
attr source packetReceivedFromUpper
attr title "packets received from higher layer, packetBytes"
vector 139 ZrpTestNetwork.node1.lo[0].lo passedUpPk:vector(packetBytes) ETV
attr interpolationmode none
attr recordingmode vector(packetBytes)
attr source packetSentToUpper
attr title "packets passed to higher layer, packetBytes"
vector 140 ZrpTestNetwork.node1.lo[0] packetDropInterfaceDown:vector(packetBytes) ETV
attr interpolationmode none
attr recordingmode vector(packetBytes)
attr source packetDropReasonIsInterfaceDown(packetDropped)
attr title "packet drops: interface down, packetBytes"
vector 141 ZrpTestNetwork.node1.lo[0] packetDropNoCarrier:vector(packetBytes) ETV
attr interpolationmode none
attr recordingmode vector(packetBytes)
attr source packetDropReasonIsNoCarrier(packetDropped)
attr title "packet drops: no carrier, packetBytes"
vector 142 ZrpTestNetwork.node1.wlan[0].mac.dcf.channelAccess.pendingQueue queueLength:vector ETV
attr autoWarmupFilter false
attr interpolationmode sample-hold
attr recordingmode vector
attr source "warmup(atomic(constant0(packetPushEnded) + count(packetPushStarted) - count(packetPulled) - count(packetRemoved) - count(packetDropped)))"
attr title "queue length"
attr unit pk
vector 143 ZrpTestNetwork.node1.wlan[0].mac.dcf.channelAccess.pendingQueue queueBitLength:vector ETV
attr autoWarmupFilter false
attr interpolationmode sample-hold
attr recordingmode vector
attr source "warmup(atomic(constant0(packetPushEnded) + sum(packetLength(packetPushStarted)) - sum(packetLength(packetPulled)) - sum(packetLength(packetRemoved)) - sum(packetLength(packetDropped))))"
attr title "queue bit length"
attr unit b
vector 144 ZrpTestNetwork.node1.wlan[0].mac.dcf.channelAccess.pendingQueue queueingTime:vector ETV
attr interpolationmode none
attr recordingmode vector
attr source queueingTime(packetPulled)
attr title "queueing times"
attr unit s
vector 145 ZrpTestNetwork.node1.wlan[0].mac.dcf.channelAccess.pendingQueue incomingPacketLengths:vector ETV
attr interpolationmode none
attr recordingmode vector
attr source packetLength(packetPushStarted)
attr title "incoming packet lengths"
attr unit b
vector 146 ZrpTestNetwork.node1.wlan[0].mac.dcf.channelAccess.pendingQueue incomingDataRate:vector ETV
attr interpolationmode linear
attr recordingmode vector
attr source throughput(packetPushStarted)
attr title "incoming datarate"
attr unit bps
vector 147 ZrpTestNetwork.node1.wlan[0].mac.dcf.channelAccess.pendingQueue outgoingPacketLengths:vector ETV
attr interpolationmode none
attr recordingmode vector
attr source packetLength(packetPulled)
attr title "outgoing packet lengths"
attr unit b
vector 148 ZrpTestNetwork.node1.wlan[0].mac.dcf.channelAccess.pendingQueue outgoingDataRate:vector ETV
attr interpolationmode linear
attr recordingmode vector
attr source throughput(packetPulled)
attr title "outgoing datarate"
attr unit bps
vector 149 ZrpTestNetwork.node1.wlan[0].mac.dcf.channelAccess.pendingQueue droppedPacketLengthsQueueOverflow:vector ETV
attr interpolationmode none
attr recordingmode vector
attr source packetLength(packetDropReasonIsQueueOverflow(packetDropped))
attr title "dropped packet lengths: queue overflow"
attr unit b
vector 150 ZrpTestNetwork.node1.wlan[0].mac.dcf.channelAccess.pendingQueue flowQueueingTime:vector ETV
attr interpolationmode none
attr recordingmode vector
attr source queueingTime(demuxFlow(packetPulled))
attr title "flow queueing times"
attr unit s
vector 151 ZrpTestNetwork.node1.wlan[0].mac.dcf.channelAccess.pendingQueue flowIncomingDataRate:vector ETV
attr interpolationmode linear
attr recordingmode vector
attr source throughput(flowPacketLength(demuxFlow(packetPushStarted)))
attr title "flow specific incoming data rate"
attr unit bps
vector 152 ZrpTestNetwork.node1.wlan[0].mac.dcf.channelAccess.pendingQueue flowOutgoingDataRate:vector ETV
attr interpolationmode linear
attr recordingmode vector
attr source throughput(flowPacketLength(demuxFlow(packetPulled)))
attr title "flow specific outgoing data rate"
attr unit bps
vector 153 ZrpTestNetwork.node1.wlan[0].mac.dcf.channelAccess.inProgressFrames queueingTime:vector ETV
attr interpolationmode none
attr recordingmode vector
attr source queueingTime(packetDequeued)
attr title "queueing times"
vector 154 ZrpTestNetwork.node1.wlan[0].mac.dcf.channelAccess.inProgressFrames queueLength:vector ETV
attr autoWarmupFilter false
attr interpolationmode sample-hold
attr recordingmode vector
attr source "warmup(count(packetEnqueued) - count(packetDequeued))"
attr title "queue length"
vector 155 ZrpTestNetwork.node1.wlan[0].mac.dcf.channelAccess.contention backoffPeriodGenerated:vector ETV
attr interpolationmode none
attr recordingmode vector
attr title "backoff periods"
vector 156 ZrpTestNetwork.node1.wlan[0].mac.dcf.channelAccess.contention backoffActive:vector ETV
attr autoWarmupFilter false
attr interpolationmode sample-hold
attr recordingmode vector
attr source warmup(count(backoffStarted)-count(backoffStopped))
attr title "backoff active"
vector 157 ZrpTestNetwork.node1.wlan[0].mac.dcf.channelAccess.contention stateChanged:vector ETV
attr enum IDLE,DEFER,IFS_AND_BACKOFF
attr interpolationmode none
attr recordingmode vector
attr title "contention state changed"
attr type enum
vector 158 ZrpTestNetwork.node1.wlan[0].mac.dcf.recipientMacDataService packetDropDuplicateDetected:vector(packetBytes) ETV
attr interpolationmode none
attr recordingmode vector(packetBytes)
attr source packetDropReasonIsDuplicateDetected(packetDropped)
attr title "packet drops: duplicate detected, packetBytes"
vector 159 ZrpTestNetwork.node1.wlan[0].mac.dcf.recoveryProcedure contentionWindowChanged:vector ETV
attr interpolationmode sample-hold
attr recordingmode vector
attr title "contention window"
vector 160 ZrpTestNetwork.node1.wlan[0].mac.dcf packetSentToPeer:vector(packetBytes) ETV
attr interpolationmode none
attr recordingmode vector(packetBytes)
attr title "packets sent, packetBytes"
vector 161 ZrpTestNetwork.node1.wlan[0].mac.dcf packetSentToPeerUnicast:vector(packetBytes) ETV
attr interpolationmode none
attr recordingmode vector(packetBytes)
attr source ieee80211Unicast(packetSentToPeer)
attr title "packets sent: unicast, packetBytes"
vector 162 ZrpTestNetwork.node1.wlan[0].mac.dcf packetSentToPeerMulticast:vector(packetBytes) ETV
attr interpolationmode none
attr recordingmode vector(packetBytes)
attr source ieee80211Multicast(packetSentToPeer)
attr title "packets sent: multicast, packetBytes"
vector 163 ZrpTestNetwork.node1.wlan[0].mac.dcf packetSentToPeerBroadcast:vector(packetBytes) ETV
attr interpolationmode none
attr recordingmode vector(packetBytes)
attr source ieee80211Broadcast(packetSentToPeer)
attr title "packets sent: broadcast , packetBytes"
vector 164 ZrpTestNetwork.node1.wlan[0].mac.dcf packetSentToPeerWithRetry:vector(packetBytes) ETV
attr interpolationmode none
attr recordingmode vector(packetBytes)
attr source ieee80211Retry(packetSentToPeer)
attr title "packets sent: with retry, packetBytes"
vector 165 ZrpTestNetwork.node1.wlan[0].mac.dcf packetSentToPeerWithoutRetry:vector(packetBytes) ETV
attr interpolationmode none
attr recordingmode vector(packetBytes)
attr source ieee80211NotRetry(packetSentToPeer)
attr title "packets sent: without retry, packetBytes"
vector 166 ZrpTestNetwork.node1.wlan[0].mac.dcf packetReceivedFromPeer:vector(packetBytes) ETV
attr interpolationmode none
attr recordingmode vector(packetBytes)
attr title "packets received, packetBytes"
vector 167 ZrpTestNetwork.node1.wlan[0].mac.dcf packetReceivedFromPeerUnicast:vector(packetBytes) ETV
attr interpolationmode none
attr recordingmode vector(packetBytes)
attr source ieee80211Unicast(packetReceivedFromPeer)
attr title "packets received: unicast, packetBytes"
vector 168 ZrpTestNetwork.node1.wlan[0].mac.dcf packetReceivedFromPeerMulticast:vector(packetBytes) ETV
attr interpolationmode none
attr recordingmode vector(packetBytes)
attr source ieee80211Multicast(packetReceivedFromPeer)
attr title "packets received: multicast, packetBytes"
vector 169 ZrpTestNetwork.node1.wlan[0].mac.dcf packetReceivedFromPeerBroadcast:vector(packetBytes) ETV
attr interpolationmode none
attr recordingmode vector(packetBytes)
attr source ieee80211Broadcast(packetReceivedFromPeer)
attr title "packets received: broadcast, packetBytes"
vector 170 ZrpTestNetwork.node1.wlan[0].mac.dcf packetReceivedFromPeerWithRetry:vector(packetBytes) ETV
attr interpolationmode none
attr recordingmode vector(packetBytes)
attr source ieee80211Retry(packetReceivedFromPeer)
attr title "packets received: with retry, packetBytes"
vector 171 ZrpTestNetwork.node1.wlan[0].mac.dcf packetReceivedFromPeerWithoutRetry:vector(packetBytes) ETV
attr interpolationmode none
attr recordingmode vector(packetBytes)
attr source ieee80211NotRetry(packetReceivedFromPeer)
attr title "packets received: without retry, packetBytes"
vector 172 ZrpTestNetwork.node1.wlan[0].mac.dcf packetDrop:vector(packetBytes) ETV
attr interpolationmode none
attr recordingmode vector(packetBytes)
attr source packetDropped
attr title "packet drops, packetBytes"
vector 173 ZrpTestNetwork.node1.wlan[0].mac.dcf packetDropNotAddressedToUs:vector(packetBytes) ETV
attr interpolationmode none
attr recordingmode vector(packetBytes)
attr source packetDropReasonIsNotAddressedToUs(packetDropped)
attr title "packet drops: not addressed to us, packetBytes"
vector 174 ZrpTestNetwork.node1.wlan[0].mac.dcf packetDropQueueOverflow:vector(packetBytes) ETV
attr interpolationmode none
attr recordingmode vector(packetBytes)
attr source packetDropReasonIsQueueOverflow(packetDropped)
attr title "packet drops: queue overflow, packetBytes"
vector 175 ZrpTestNetwork.node1.wlan[0].mac.dcf packetDropRetryLimitReached:vector(packetBytes) ETV
attr interpolationmode none
attr recordingmode vector(packetBytes)
attr source packetDropReasonIsRetryLimitReached(packetDropped)
attr title "packet drops: retry limit reached, packetBytes"
vector 176 ZrpTestNetwork.node1.wlan[0].mac.dcf frameSequenceActive:vector ETV
attr autoWarmupFilter false
attr interpolationmode sample-hold
attr recordingmode vector
attr source warmup(count(frameSequenceStarted)-count(frameSequenceFinished))
attr title "frame sequence active"
vector 177 ZrpTestNetwork.node1.wlan[0].mac.dcf datarateSelected:vector ETV
attr interpolationmode none
attr recordingmode vector
attr title "datarates selected"
vector 178 ZrpTestNetwork.node1.wlan[0].mac.rx nav:vector ETV
attr interpolationmode linear
attr recordingmode vector
attr source navChanged
attr title "network allocation vector"
vector 179 ZrpTestNetwork.node1.wlan[0].mac packetSentToUpper:vector(packetBytes) ETV
attr interpolationmode none
attr recordingmode vector(packetBytes)
attr title "packets sent to upper layer, packetBytes"
vector 180 ZrpTestNetwork.node1.wlan[0].mac packetSentToLower:vector(packetBytes) ETV
attr interpolationmode none
attr recordingmode vector(packetBytes)
attr title "packets sent to lower layer, packetBytes"
vector 181 ZrpTestNetwork.node1.wlan[0].mac packetReceivedFromUpper:vector(packetBytes) ETV
attr interpolationmode none
attr recordingmode vector(packetBytes)
attr title "packets received from upper layer, packetBytes"
vector 182 ZrpTestNetwork.node1.wlan[0].mac packetReceivedFromLower:vector(packetBytes) ETV
attr interpolationmode none
attr recordingmode vector(packetBytes)
attr title "packets received from lower layer, packetBytes"
vector 183 ZrpTestNetwork.node1.wlan[0].mac packetDrop:vector(packetBytes) ETV
attr interpolationmode none
attr recordingmode vector(packetBytes)
attr source packetDropped
attr title "packet drops, packetBytes"
vector 184 ZrpTestNetwork.node1.wlan[0].mac packetDropIncorrectlyReceived:vector(packetBytes) ETV
attr interpolationmode none
attr recordingmode vector(packetBytes)
attr source packetDropReasonIsIncorrectlyReceived(packetDropped)
attr title "packet drops: incorrectly received, packetBytes"
vector 185 ZrpTestNetwork.node1.wlan[0].mac packetDropNotAddressedToUs:vector(packetBytes) ETV
attr interpolationmode none
attr recordingmode vector(packetBytes)
attr source packetDropReasonIsNotAddressedToUs(packetDropped)
attr title "packet drops: not addressed to us, packetBytes"
vector 186 ZrpTestNetwork.node1.wlan[0].mac packetDropQueueOverflow:vector(packetBytes) ETV
attr interpolationmode none
attr recordingmode vector(packetBytes)
attr source packetDropReasonIsQueueOverflow(packetDropped)
attr title "packet drops: queue overflow, packetBytes"
vector 187 ZrpTestNetwork.node1.wlan[0].mac packetDropRetryLimitReached:vector(packetBytes) ETV
attr interpolationmode none
attr recordingmode vector(packetBytes)
attr source packetDropReasonIsRetryLimitReached(packetDropped)
attr title "packet drops: retry limit reached, packetBytes"
vector 188 ZrpTestNetwork.node1.wlan[0].mac packetDropDuplicateDetected:vector(packetBytes) ETV
attr interpolationmode none
attr recordingmode vector(packetBytes)
attr source packetDropReasonIsDuplicateDetected(packetDropped)
attr title "packet drops: duplicate detected, packetBytes"
vector 189 ZrpTestNetwork.node1.wlan[0].mac packetDropOther:vector(packetBytes) ETV
attr interpolationmode none
attr recordingmode vector(packetBytes)
attr source packetDropReasonIsOther(packetDropped)
attr title "packet drops: other, packetBytes"
vector 190 ZrpTestNetwork.node1.wlan[0].radio radioMode:vector ETV
attr interpolationmode sample-hold
attr recordingmode vector
attr source radioModeChanged
attr title "Radio mode"
vector 191 ZrpTestNetwork.node1.wlan[0].radio receptionState:vector ETV
attr interpolationmode sample-hold
attr recordingmode vector
attr source receptionStateChanged
attr title "Radio reception state"
vector 192 ZrpTestNetwork.node1.wlan[0].radio transmissionState:vector ETV
attr interpolationmode sample-hold
attr recordingmode vector
attr source transmissionStateChanged
attr title "Radio transmission state"
vector 193 ZrpTestNetwork.node1.wlan[0].radio radioChannel:vector ETV
attr interpolationmode sample-hold
attr recordingmode vector
attr source radioChannelChanged
attr title "Radio channel"
vector 194 ZrpTestNetwork.node1.wlan[0] packetDropInterfaceDown:vector(packetBytes) ETV
attr interpolationmode none
attr recordingmode vector(packetBytes)
attr source packetDropReasonIsInterfaceDown(packetDropped)
attr title "packet drops: interface down, packetBytes"
vector 195 ZrpTestNetwork.node1.wlan[0] packetDropNoCarrier:vector(packetBytes) ETV
attr interpolationmode none
attr recordingmode vector(packetBytes)
attr source packetDropReasonIsNoCarrier(packetDropped)
attr title "packet drops: no carrier, packetBytes"
vector 196 ZrpTestNetwork.node1.ipv4.ip packetDropAddressResolutionFailed:vector(packetBytes) ETV
attr interpolationmode none
attr recordingmode vector(packetBytes)
attr source packetDropReasonIsAddressResolutionFailed(packetDropped)
attr title "packet drop: address resolution failed, packetBytes"
vector 197 ZrpTestNetwork.node1.ipv4.ip packetDropHopLimitReached:vector(packetBytes) ETV
attr interpolationmode none
attr recordingmode vector(packetBytes)
attr source packetDropReasonIsHopLimitReached(packetDropped)
attr title "packet drop: hop limit reached, packetBytes"
vector 198 ZrpTestNetwork.node1.ipv4.ip packetDropForwardingDisabled:vector(packetBytes) ETV
attr interpolationmode none
attr recordingmode vector(packetBytes)
attr source packetDropReasonIsForwardingDisabled(packetDropped)
attr title "packet drop: forwarding disabled, packetBytes"
vector 199 ZrpTestNetwork.node1.ipv4.ip packetDropNoInterfaceFound:vector(packetBytes) ETV
attr interpolationmode none
attr recordingmode vector(packetBytes)
attr source packetDropReasonIsNoInterfaceFound(packetDropped)
attr title "packet drop: no interface found, packetBytes"
vector 200 ZrpTestNetwork.node1.ipv4.ip packetDropNoRouteFound:vector(packetBytes) ETV
attr interpolationmode none
attr recordingmode vector(packetBytes)
attr source packetDropReasonIsNoRouteFound(packetDropped)
attr title "packet drop: no route found, packetBytes"
vector 201 ZrpTestNetwork.node1.ipv4.ip packetDropUndefined:vector(packetBytes) ETV
attr interpolationmode none
attr recordingmode vector(packetBytes)
attr source packetDropReasonIsUndefined(packetDropped)
attr title "packet drop: undefined, packetBytes"
vector 202 ZrpTestNetwork.node1.udp packetSent:vector(packetBytes) ETV
attr interpolationmode none
attr recordingmode vector(packetBytes)
attr source packetSent
attr title "packets sent, packetBytes"
vector 203 ZrpTestNetwork.node1.udp packetReceived:vector(packetBytes) ETV
attr interpolationmode none
attr recordingmode vector(packetBytes)
attr source packetReceived
attr title "packets received, packetBytes"
vector 204 ZrpTestNetwork.node1.udp passedUpPk:vector(count) ETV
attr interpolationmode none
attr recordingmode vector(count)
attr source packetSentToUpper
attr title "packets passed up, count"
vector 205 ZrpTestNetwork.node1.udp droppedPkWrongPort:vector(count) ETV
attr interpolationmode none
attr recordingmode vector(count)
attr source packetDropReasonIsNoPortFound(packetDropped)
attr title "packets dropped (wrong port), count"
vector 206 ZrpTestNetwork.node1.udp droppedPkBadChecksum:vector(count) ETV
attr interpolationmode none
attr recordingmode vector(count)
attr source packetDropReasonIsIncorrectlyReceived(packetDropped)
attr title "packets dropped (checksum error), count"
vector 207 ZrpTestNetwork.node2.lo[0].lo rcvdPkFromHl:vector(packetBytes) ETV
attr interpolationmode none
attr recordingmode vector(packetBytes)
attr source packetReceivedFromUpper
attr title "packets received from higher layer, packetBytes"
vector 208 ZrpTestNetwork.node2.lo[0].lo passedUpPk:vector(packetBytes) ETV
attr interpolationmode none
attr recordingmode vector(packetBytes)
attr source packetSentToUpper
attr title "packets passed to higher layer, packetBytes"
vector 209 ZrpTestNetwork.node2.lo[0] packetDropInterfaceDown:vector(packetBytes) ETV
attr interpolationmode none
attr recordingmode vector(packetBytes)
attr source packetDropReasonIsInterfaceDown(packetDropped)
attr title "packet drops: interface down, packetBytes"
vector 210 ZrpTestNetwork.node2.lo[0] packetDropNoCarrier:vector(packetBytes) ETV
attr interpolationmode none
attr recordingmode vector(packetBytes)
attr source packetDropReasonIsNoCarrier(packetDropped)
attr title "packet drops: no carrier, packetBytes"
vector 211 ZrpTestNetwork.node2.wlan[0].mac.dcf.channelAccess.pendingQueue queueLength:vector ETV
attr autoWarmupFilter false
attr interpolationmode sample-hold
attr recordingmode vector
attr source "warmup(atomic(constant0(packetPushEnded) + count(packetPushStarted) - count(packetPulled) - count(packetRemoved) - count(packetDropped)))"
attr title "queue length"
attr unit pk
vector 212 ZrpTestNetwork.node2.wlan[0].mac.dcf.channelAccess.pendingQueue queueBitLength:vector ETV
attr autoWarmupFilter false
attr interpolationmode sample-hold
attr recordingmode vector
attr source "warmup(atomic(constant0(packetPushEnded) + sum(packetLength(packetPushStarted)) - sum(packetLength(packetPulled)) - sum(packetLength(packetRemoved)) - sum(packetLength(packetDropped))))"
attr title "queue bit length"
attr unit b
vector 213 ZrpTestNetwork.node2.wlan[0].mac.dcf.channelAccess.pendingQueue queueingTime:vector ETV
attr interpolationmode none
attr recordingmode vector
attr source queueingTime(packetPulled)
attr title "queueing times"
attr unit s
vector 214 ZrpTestNetwork.node2.wlan[0].mac.dcf.channelAccess.pendingQueue incomingPacketLengths:vector ETV
attr interpolationmode none
attr recordingmode vector
attr source packetLength(packetPushStarted)
attr title "incoming packet lengths"
attr unit b
vector 215 ZrpTestNetwork.node2.wlan[0].mac.dcf.channelAccess.pendingQueue incomingDataRate:vector ETV
attr interpolationmode linear
attr recordingmode vector
attr source throughput(packetPushStarted)
attr title "incoming datarate"
attr unit bps
vector 216 ZrpTestNetwork.node2.wlan[0].mac.dcf.channelAccess.pendingQueue outgoingPacketLengths:vector ETV
attr interpolationmode none
attr recordingmode vector
attr source packetLength(packetPulled)
attr title "outgoing packet lengths"
attr unit b
vector 217 ZrpTestNetwork.node2.wlan[0].mac.dcf.channelAccess.pendingQueue outgoingDataRate:vector ETV
attr interpolationmode linear
attr recordingmode vector
attr source throughput(packetPulled)
attr title "outgoing datarate"
attr unit bps
vector 218 ZrpTestNetwork.node2.wlan[0].mac.dcf.channelAccess.pendingQueue droppedPacketLengthsQueueOverflow:vector ETV
attr interpolationmode none
attr recordingmode vector
attr source packetLength(packetDropReasonIsQueueOverflow(packetDropped))
attr title "dropped packet lengths: queue overflow"
attr unit b
vector 219 ZrpTestNetwork.node2.wlan[0].mac.dcf.channelAccess.pendingQueue flowQueueingTime:vector ETV
attr interpolationmode none
attr recordingmode vector
attr source queueingTime(demuxFlow(packetPulled))
attr title "flow queueing times"
attr unit s
vector 220 ZrpTestNetwork.node2.wlan[0].mac.dcf.channelAccess.pendingQueue flowIncomingDataRate:vector ETV
attr interpolationmode linear
attr recordingmode vector
attr source throughput(flowPacketLength(demuxFlow(packetPushStarted)))
attr title "flow specific incoming data rate"
attr unit bps
vector 221 ZrpTestNetwork.node2.wlan[0].mac.dcf.channelAccess.pendingQueue flowOutgoingDataRate:vector ETV
attr interpolationmode linear
attr recordingmode vector
attr source throughput(flowPacketLength(demuxFlow(packetPulled)))
attr title "flow specific outgoing data rate"
attr unit bps
vector 222 ZrpTestNetwork.node2.wlan[0].mac.dcf.channelAccess.inProgressFrames queueingTime:vector ETV
attr interpolationmode none
attr recordingmode vector
attr source queueingTime(packetDequeued)
attr title "queueing times"
vector 223 ZrpTestNetwork.node2.wlan[0].mac.dcf.channelAccess.inProgressFrames queueLength:vector ETV
attr autoWarmupFilter false
attr interpolationmode sample-hold
attr recordingmode vector
attr source "warmup(count(packetEnqueued) - count(packetDequeued))"
attr title "queue length"
vector 224 ZrpTestNetwork.node2.wlan[0].mac.dcf.channelAccess.contention backoffPeriodGenerated:vector ETV
attr interpolationmode none
attr recordingmode vector
attr title "backoff periods"
vector 225 ZrpTestNetwork.node2.wlan[0].mac.dcf.channelAccess.contention backoffActive:vector ETV
attr autoWarmupFilter false
attr interpolationmode sample-hold
attr recordingmode vector
attr source warmup(count(backoffStarted)-count(backoffStopped))
attr title "backoff active"
vector 226 ZrpTestNetwork.node2.wlan[0].mac.dcf.channelAccess.contention stateChanged:vector ETV
attr enum IDLE,DEFER,IFS_AND_BACKOFF
attr interpolationmode none
attr recordingmode vector
attr title "contention state changed"
attr type enum
vector 227 ZrpTestNetwork.node2.wlan[0].mac.dcf.recipientMacDataService packetDropDuplicateDetected:vector(packetBytes) ETV
attr interpolationmode none
attr recordingmode vector(packetBytes)
attr source packetDropReasonIsDuplicateDetected(packetDropped)
attr title "packet drops: duplicate detected, packetBytes"
vector 228 ZrpTestNetwork.node2.wlan[0].mac.dcf.recoveryProcedure contentionWindowChanged:vector ETV
attr interpolationmode sample-hold
attr recordingmode vector
attr title "contention window"
vector 229 ZrpTestNetwork.node2.wlan[0].mac.dcf packetSentToPeer:vector(packetBytes) ETV
attr interpolationmode none
attr recordingmode vector(packetBytes)
attr title "packets sent, packetBytes"
vector 230 ZrpTestNetwork.node2.wlan[0].mac.dcf packetSentToPeerUnicast:vector(packetBytes) ETV
attr interpolationmode none
attr recordingmode vector(packetBytes)
attr source ieee80211Unicast(packetSentToPeer)
attr title "packets sent: unicast, packetBytes"
vector 231 ZrpTestNetwork.node2.wlan[0].mac.dcf packetSentToPeerMulticast:vector(packetBytes) ETV
attr interpolationmode none
attr recordingmode vector(packetBytes)
attr source ieee80211Multicast(packetSentToPeer)
attr title "packets sent: multicast, packetBytes"
vector 232 ZrpTestNetwork.node2.wlan[0].mac.dcf packetSentToPeerBroadcast:vector(packetBytes) ETV
attr interpolationmode none
attr recordingmode vector(packetBytes)
attr source ieee80211Broadcast(packetSentToPeer)
attr title "packets sent: broadcast , packetBytes"
vector 233 ZrpTestNetwork.node2.wlan[0].mac.dcf packetSentToPeerWithRetry:vector(packetBytes) ETV
attr interpolationmode none
attr recordingmode vector(packetBytes)
attr source ieee80211Retry(packetSentToPeer)
attr title "packets sent: with retry, packetBytes"
vector 234 ZrpTestNetwork.node2.wlan[0].mac.dcf packetSentToPeerWithoutRetry:vector(packetBytes) ETV
attr interpolationmode none
attr recordingmode vector(packetBytes)
attr source ieee80211NotRetry(packetSentToPeer)
attr title "packets sent: without retry, packetBytes"
vector 235 ZrpTestNetwork.node2.wlan[0].mac.dcf packetReceivedFromPeer:vector(packetBytes) ETV
attr interpolationmode none
attr recordingmode vector(packetBytes)
attr title "packets received, packetBytes"
vector 236 ZrpTestNetwork.node2.wlan[0].mac.dcf packetReceivedFromPeerUnicast:vector(packetBytes) ETV
attr interpolationmode none
attr recordingmode vector(packetBytes)
attr source ieee80211Unicast(packetReceivedFromPeer)
attr title "packets received: unicast, packetBytes"
vector 237 ZrpTestNetwork.node2.wlan[0].mac.dcf packetReceivedFromPeerMulticast:vector(packetBytes) ETV
attr interpolationmode none
attr recordingmode vector(packetBytes)
attr source ieee80211Multicast(packetReceivedFromPeer)
attr title "packets received: multicast, packetBytes"
vector 238 ZrpTestNetwork.node2.wlan[0].mac.dcf packetReceivedFromPeerBroadcast:vector(packetBytes) ETV
attr interpolationmode none
attr recordingmode vector(packetBytes)
attr source ieee80211Broadcast(packetReceivedFromPeer)
attr title "packets received: broadcast, packetBytes"
vector 239 ZrpTestNetwork.node2.wlan[0].mac.dcf packetReceivedFromPeerWithRetry:vector(packetBytes) ETV
attr interpolationmode none
attr recordingmode vector(packetBytes)
attr source ieee80211Retry(packetReceivedFromPeer)
attr title "packets received: with retry, packetBytes"
vector 240 ZrpTestNetwork.node2.wlan[0].mac.dcf packetReceivedFromPeerWithoutRetry:vector(packetBytes) ETV
attr interpolationmode none
attr recordingmode vector(packetBytes)
attr source ieee80211NotRetry(packetReceivedFromPeer)
attr title "packets received: without retry, packetBytes"
vector 241 ZrpTestNetwork.node2.wlan[0].mac.dcf packetDrop:vector(packetBytes) ETV
attr interpolationmode none
attr recordingmode vector(packetBytes)
attr source packetDropped
attr title "packet drops, packetBytes"
vector 242 ZrpTestNetwork.node2.wlan[0].mac.dcf packetDropNotAddressedToUs:vector(packetBytes) ETV
attr interpolationmode none
attr recordingmode vector(packetBytes)
attr source packetDropReasonIsNotAddressedToUs(packetDropped)
attr title "packet drops: not addressed to us, packetBytes"
vector 243 ZrpTestNetwork.node2.wlan[0].mac.dcf packetDropQueueOverflow:vector(packetBytes) ETV
attr interpolationmode none
attr recordingmode vector(packetBytes)
attr source packetDropReasonIsQueueOverflow(packetDropped)
attr title "packet drops: queue overflow, packetBytes"
vector 244 ZrpTestNetwork.node2.wlan[0].mac.dcf packetDropRetryLimitReached:vector(packetBytes) ETV
attr interpolationmode none
attr recordingmode vector(packetBytes)
attr source packetDropReasonIsRetryLimitReached(packetDropped)
attr title "packet drops: retry limit reached, packetBytes"
vector 245 ZrpTestNetwork.node2.wlan[0].mac.dcf frameSequenceActive:vector ETV
attr autoWarmupFilter false
attr interpolationmode sample-hold
attr recordingmode vector
attr source warmup(count(frameSequenceStarted)-count(frameSequenceFinished))
attr title "frame sequence active"
vector 246 ZrpTestNetwork.node2.wlan[0].mac.dcf datarateSelected:vector ETV
attr interpolationmode none
attr recordingmode vector
attr title "datarates selected"
vector 247 ZrpTestNetwork.node2.wlan[0].mac.rx nav:vector ETV
attr interpolationmode linear
attr recordingmode vector
attr source navChanged
attr title "network allocation vector"
vector 248 ZrpTestNetwork.node2.wlan[0].mac packetSentToUpper:vector(packetBytes) ETV
attr interpolationmode none
attr recordingmode vector(packetBytes)
attr title "packets sent to upper layer, packetBytes"
vector 249 ZrpTestNetwork.node2.wlan[0].mac packetSentToLower:vector(packetBytes) ETV
attr interpolationmode none
attr recordingmode vector(packetBytes)
attr title "packets sent to lower layer, packetBytes"
vector 250 ZrpTestNetwork.node2.wlan[0].mac packetReceivedFromUpper:vector(packetBytes) ETV
attr interpolationmode none
attr recordingmode vector(packetBytes)
attr title "packets received from upper layer, packetBytes"
vector 251 ZrpTestNetwork.node2.wlan[0].mac packetReceivedFromLower:vector(packetBytes) ETV
attr interpolationmode none
attr recordingmode vector(packetBytes)
attr title "packets received from lower layer, packetBytes"
vector 252 ZrpTestNetwork.node2.wlan[0].mac packetDrop:vector(packetBytes) ETV
attr interpolationmode none
attr recordingmode vector(packetBytes)
attr source packetDropped
attr title "packet drops, packetBytes"
vector 253 ZrpTestNetwork.node2.wlan[0].mac packetDropIncorrectlyReceived:vector(packetBytes) ETV
attr interpolationmode none
attr recordingmode vector(packetBytes)
attr source packetDropReasonIsIncorrectlyReceived(packetDropped)
attr title "packet drops: incorrectly received, packetBytes"
vector 254 ZrpTestNetwork.node2.wlan[0].mac packetDropNotAddressedToUs:vector(packetBytes) ETV
attr interpolationmode none
attr recordingmode vector(packetBytes)
attr source packetDropReasonIsNotAddressedToUs(packetDropped)
attr title "packet drops: not addressed to us, packetBytes"
vector 255 ZrpTestNetwork.node2.wlan[0].mac packetDropQueueOverflow:vector(packetBytes) ETV
attr interpolationmode none
attr recordingmode vector(packetBytes)
attr source packetDropReasonIsQueueOverflow(packetDropped)
attr title "packet drops: queue overflow, packetBytes"
vector 256 ZrpTestNetwork.node2.wlan[0].mac packetDropRetryLimitReached:vector(packetBytes) ETV
attr interpolationmode none
attr recordingmode vector(packetBytes)
attr source packetDropReasonIsRetryLimitReached(packetDropped)
attr title "packet drops: retry limit reached, packetBytes"
vector 257 ZrpTestNetwork.node2.wlan[0].mac packetDropDuplicateDetected:vector(packetBytes) ETV
attr interpolationmode none
attr recordingmode vector(packetBytes)
attr source packetDropReasonIsDuplicateDetected(packetDropped)
attr title "packet drops: duplicate detected, packetBytes"
vector 258 ZrpTestNetwork.node2.wlan[0].mac packetDropOther:vector(packetBytes) ETV
attr interpolationmode none
attr recordingmode vector(packetBytes)
attr source packetDropReasonIsOther(packetDropped)
attr title "packet drops: other, packetBytes"
vector 259 ZrpTestNetwork.node2.wlan[0].radio radioMode:vector ETV
attr interpolationmode sample-hold
attr recordingmode vector
attr source radioModeChanged
attr title "Radio mode"
vector 260 ZrpTestNetwork.node2.wlan[0].radio receptionState:vector ETV
attr interpolationmode sample-hold
attr recordingmode vector
attr source receptionStateChanged
attr title "Radio reception state"
vector 261 ZrpTestNetwork.node2.wlan[0].radio transmissionState:vector ETV
attr interpolationmode sample-hold
attr recordingmode vector
attr source transmissionStateChanged
attr title "Radio transmission state"
vector 262 ZrpTestNetwork.node2.wlan[0].radio radioChannel:vector ETV
attr interpolationmode sample-hold
attr recordingmode vector
attr source radioChannelChanged
attr title "Radio channel"
vector 263 ZrpTestNetwork.node2.wlan[0] packetDropInterfaceDown:vector(packetBytes) ETV
attr interpolationmode none
attr recordingmode vector(packetBytes)
attr source packetDropReasonIsInterfaceDown(packetDropped)
attr title "packet drops: interface down, packetBytes"
vector 264 ZrpTestNetwork.node2.wlan[0] packetDropNoCarrier:vector(packetBytes) ETV
attr interpolationmode none
attr recordingmode vector(packetBytes)
attr source packetDropReasonIsNoCarrier(packetDropped)
attr title "packet drops: no carrier, packetBytes"
vector 265 ZrpTestNetwork.node2.ipv4.ip packetDropAddressResolutionFailed:vector(packetBytes) ETV
attr interpolationmode none
attr recordingmode vector(packetBytes)
attr source packetDropReasonIsAddressResolutionFailed(packetDropped)
attr title "packet drop: address resolution failed, packetBytes"
vector 266 ZrpTestNetwork.node2.ipv4.ip packetDropHopLimitReached:vector(packetBytes) ETV
attr interpolationmode none
attr recordingmode vector(packetBytes)
attr source packetDropReasonIsHopLimitReached(packetDropped)
attr title "packet drop: hop limit reached, packetBytes"
vector 267 ZrpTestNetwork.node2.ipv4.ip packetDropForwardingDisabled:vector(packetBytes) ETV
attr interpolationmode none
attr recordingmode vector(packetBytes)
attr source packetDropReasonIsForwardingDisabled(packetDropped)
attr title "packet drop: forwarding disabled, packetBytes"
vector 268 ZrpTestNetwork.node2.ipv4.ip packetDropNoInterfaceFound:vector(packetBytes) ETV
attr interpolationmode none
attr recordingmode vector(packetBytes)
attr source packetDropReasonIsNoInterfaceFound(packetDropped)
attr title "packet drop: no interface found, packetBytes"
vector 269 ZrpTestNetwork.node2.ipv4.ip packetDropNoRouteFound:vector(packetBytes) ETV
attr interpolationmode none
attr recordingmode vector(packetBytes)
attr source packetDropReasonIsNoRouteFound(packetDropped)
attr title "packet drop: no route found, packetBytes"
vector 270 ZrpTestNetwork.node2.ipv4.ip packetDropUndefined:vector(packetBytes) ETV
attr interpolationmode none
attr recordingmode vector(packetBytes)
attr source packetDropReasonIsUndefined(packetDropped)
attr title "packet drop: undefined, packetBytes"
vector 271 ZrpTestNetwork.node2.udp packetSent:vector(packetBytes) ETV
attr interpolationmode none
attr recordingmode vector(packetBytes)
attr source packetSent
attr title "packets sent, packetBytes"
vector 272 ZrpTestNetwork.node2.udp packetReceived:vector(packetBytes) ETV
attr interpolationmode none
attr recordingmode vector(packetBytes)
attr source packetReceived
attr title "packets received, packetBytes"
vector 273 ZrpTestNetwork.node2.udp passedUpPk:vector(count) ETV
attr interpolationmode none
attr recordingmode vector(count)
attr source packetSentToUpper
attr title "packets passed up, count"
vector 274 ZrpTestNetwork.node2.udp droppedPkWrongPort:vector(count) ETV
attr interpolationmode none
attr recordingmode vector(count)
attr source packetDropReasonIsNoPortFound(packetDropped)
attr title "packets dropped (wrong port), count"
vector 275 ZrpTestNetwork.node2.udp droppedPkBadChecksum:vector(count) ETV
attr interpolationmode none
attr recordingmode vector(count)
attr source packetDropReasonIsIncorrectlyReceived(packetDropped)
attr title "packets dropped (checksum error), count"
vector 276 ZrpTestNetwork.node3.lo[0].lo rcvdPkFromHl:vector(packetBytes) ETV
attr interpolationmode none
attr recordingmode vector(packetBytes)
attr source packetReceivedFromUpper
attr title "packets received from higher layer, packetBytes"
vector 277 ZrpTestNetwork.node3.lo[0].lo passedUpPk:vector(packetBytes) ETV
attr interpolationmode none
attr recordingmode vector(packetBytes)
attr source packetSentToUpper
attr title "packets passed to higher layer, packetBytes"
vector 278 ZrpTestNetwork.node3.lo[0] packetDropInterfaceDown:vector(packetBytes) ETV
attr interpolationmode none
attr recordingmode vector(packetBytes)
attr source packetDropReasonIsInterfaceDown(packetDropped)
attr title "packet drops: interface down, packetBytes"
vector 279 ZrpTestNetwork.node3.lo[0] packetDropNoCarrier:vector(packetBytes) ETV
attr interpolationmode none
attr recordingmode vector(packetBytes)
attr source packetDropReasonIsNoCarrier(packetDropped)
attr title "packet drops: no carrier, packetBytes"
vector 280 ZrpTestNetwork.node3.wlan[0].mac.dcf.channelAccess.pendingQueue queueLength:vector ETV
attr autoWarmupFilter false
attr interpolationmode sample-hold
attr recordingmode vector
attr source "warmup(atomic(constant0(packetPushEnded) + count(packetPushStarted) - count(packetPulled) - count(packetRemoved) - count(packetDropped)))"
attr title "queue length"
attr unit pk
vector 281 ZrpTestNetwork.node3.wlan[0].mac.dcf.channelAccess.pendingQueue queueBitLength:vector ETV
attr autoWarmupFilter false
attr interpolationmode sample-hold
attr recordingmode vector
attr source "warmup(atomic(constant0(packetPushEnded) + sum(packetLength(packetPushStarted)) - sum(packetLength(packetPulled)) - sum(packetLength(packetRemoved)) - sum(packetLength(packetDropped))))"
attr title "queue bit length"
attr unit b
vector 282 ZrpTestNetwork.node3.wlan[0].mac.dcf.channelAccess.pendingQueue queueingTime:vector ETV
attr interpolationmode none
attr recordingmode vector
attr source queueingTime(packetPulled)
attr title "queueing times"
attr unit s
vector 283 ZrpTestNetwork.node3.wlan[0].mac.dcf.channelAccess.pendingQueue incomingPacketLengths:vector ETV
attr interpolationmode none
attr recordingmode vector
attr source packetLength(packetPushStarted)
attr title "incoming packet lengths"
attr unit b
vector 284 ZrpTestNetwork.node3.wlan[0].mac.dcf.channelAccess.pendingQueue incomingDataRate:vector ETV
attr interpolationmode linear
attr recordingmode vector
attr source throughput(packetPushStarted)
attr title "incoming datarate"
attr unit bps
vector 285 ZrpTestNetwork.node3.wlan[0].mac.dcf.channelAccess.pendingQueue outgoingPacketLengths:vector ETV
attr interpolationmode none
attr recordingmode vector
attr source packetLength(packetPulled)
attr title "outgoing packet lengths"
attr unit b
vector 286 ZrpTestNetwork.node3.wlan[0].mac.dcf.channelAccess.pendingQueue outgoingDataRate:vector ETV
attr interpolationmode linear
attr recordingmode vector
attr source throughput(packetPulled)
attr title "outgoing datarate"
attr unit bps
vector 287 ZrpTestNetwork.node3.wlan[0].mac.dcf.channelAccess.pendingQueue droppedPacketLengthsQueueOverflow:vector ETV
attr interpolationmode none
attr recordingmode vector
attr source packetLength(packetDropReasonIsQueueOverflow(packetDropped))
attr title "dropped packet lengths: queue overflow"
attr unit b
vector 288 ZrpTestNetwork.node3.wlan[0].mac.dcf.channelAccess.pendingQueue flowQueueingTime:vector ETV
attr interpolationmode none
attr recordingmode vector
attr source queueingTime(demuxFlow(packetPulled))
attr title "flow queueing times"
attr unit s
vector 289 ZrpTestNetwork.node3.wlan[0].mac.dcf.channelAccess.pendingQueue flowIncomingDataRate:vector ETV
attr interpolationmode linear
attr recordingmode vector
attr source throughput(flowPacketLength(demuxFlow(packetPushStarted)))
attr title "flow specific incoming data rate"
attr unit bps
vector 290 ZrpTestNetwork.node3.wlan[0].mac.dcf.channelAccess.pendingQueue flowOutgoingDataRate:vector ETV
attr interpolationmode linear
attr recordingmode vector
attr source throughput(flowPacketLength(demuxFlow(packetPulled)))
attr title "flow specific outgoing data rate"
attr unit bps
vector 291 ZrpTestNetwork.node3.wlan[0].mac.dcf.channelAccess.inProgressFrames queueingTime:vector ETV
attr interpolationmode none
attr recordingmode vector
attr source queueingTime(packetDequeued)
attr title "queueing times"
vector 292 ZrpTestNetwork.node3.wlan[0].mac.dcf.channelAccess.inProgressFrames queueLength:vector ETV
attr autoWarmupFilter false
attr interpolationmode sample-hold
attr recordingmode vector
attr source "warmup(count(packetEnqueued) - count(packetDequeued))"
attr title "queue length"
vector 293 ZrpTestNetwork.node3.wlan[0].mac.dcf.channelAccess.contention backoffPeriodGenerated:vector ETV
attr interpolationmode none
attr recordingmode vector
attr title "backoff periods"
vector 294 ZrpTestNetwork.node3.wlan[0].mac.dcf.channelAccess.contention backoffActive:vector ETV
attr autoWarmupFilter false
attr interpolationmode sample-hold
attr recordingmode vector
attr source warmup(count(backoffStarted)-count(backoffStopped))
attr title "backoff active"
vector 295 ZrpTestNetwork.node3.wlan[0].mac.dcf.channelAccess.contention stateChanged:vector ETV
attr enum IDLE,DEFER,IFS_AND_BACKOFF
attr interpolationmode none
attr recordingmode vector
attr title "contention state changed"
attr type enum
vector 296 ZrpTestNetwork.node3.wlan[0].mac.dcf.recipientMacDataService packetDropDuplicateDetected:vector(packetBytes) ETV
attr interpolationmode none
attr recordingmode vector(packetBytes)
attr source packetDropReasonIsDuplicateDetected(packetDropped)
attr title "packet drops: duplicate detected, packetBytes"
vector 297 ZrpTestNetwork.node3.wlan[0].mac.dcf.recoveryProcedure contentionWindowChanged:vector ETV
attr interpolationmode sample-hold
attr recordingmode vector
attr title "contention window"
vector 298 ZrpTestNetwork.node3.wlan[0].mac.dcf packetSentToPeer:vector(packetBytes) ETV
attr interpolationmode none
attr recordingmode vector(packetBytes)
attr title "packets sent, packetBytes"
vector 299 ZrpTestNetwork.node3.wlan[0].mac.dcf packetSentToPeerUnicast:vector(packetBytes) ETV
attr interpolationmode none
attr recordingmode vector(packetBytes)
attr source ieee80211Unicast(packetSentToPeer)
attr title "packets sent: unicast, packetBytes"
vector 300 ZrpTestNetwork.node3.wlan[0].mac.dcf packetSentToPeerMulticast:vector(packetBytes) ETV
attr interpolationmode none
attr recordingmode vector(packetBytes)
attr source ieee80211Multicast(packetSentToPeer)
attr title "packets sent: multicast, packetBytes"
[...]
33	247410 4284 48 28071 0.002076328296 77.007157969456 156 70 70 10920 764400
38	251694 4094 0 27810 0 76.056858456376 156 0 1 77 77
39	255788 2577 176 27800 0.056804456376 76.056804456376 77 24000000 24000000 1848000000 4.4352e+16
41	258365 4284 48 28071 0.002076328296 77.007157969456 156 42 42 6552 275184
42	262649 2115 176 27800 0.056804456376 76.056804456376 77 70 70 5390 377300
43	264764 2115 174 27798 0.056804456376 76.056804456376 77 42 42 3234 135828
44	266879 4284 48 28071 0.002076328296 77.007157969456 156 70 70 10920 764400
52	271163 4103 0 27811 0 76.056858456376 157 0 3 387 1005
53	275266 12341 0 28070 0 77.007157969456 467 0 3 702 1638
54	287607 8152 177 27811 0.056804456376 76.056858456376 308 0 2 308 462
55	295759 9 0 0 0 0 1 0 0 0 0
64	295768 2115 171 27795 0.056804456376 76.056804456376 77 14 14 1078 15092
65	297883 4284 51 28074 0.002076328296 77.007157969456 156 14 14 2184 30576
66	302167 4341 0 28074 0 77.007157969456 157 0 156 12246 1277666
67	306508 9 0 0 0 0 1 0 0 0 0
68	306517 9 0 0 0 0 1 0 0 0 0
73	306526 4125 0 27963 0 76.092559663323 159 0 1 77 77
74	310651 4279 0 27963 0 76.092559663323 159 0 560 43120 24147200
75	314930 2040 338 27963 0.092559663323 76.092559663323 77 0 0 0 0
76	316970 2194 336 27961 0.092559663323 76.092559663323 77 560 560 43120 24147200
77	319164 11867 694 27961 0.1 76 760 0 5600 425600 2383360000
78	331031 2194 338 27963 0.092559663323 76.092559663323 77 560 560 43120 24147200
79	333225 11867 696 27963 0.1 76 760 0 5600 425600 2383360000
84	345092 2502 348 27973 0.092613663323 76.092613663323 77 5.4e-05 5.4e-05 0.004158 2.24532e-07
85	347594 4098 0 27973 0 76.092613663323 156 0 1 77 77
86	351692 2092 336 27961 0.092559663323 76.092559663323 77 0 31 1158 23788
87	353784 4098 0 27962 0 76.092559663323 156 0 1 77 77
88	357882 40910 0 28138 0 77.008767368293 1546 0 2 308 616
90	398792 10 0 0 0 0 1 31 31 31 961
91	398802 2117 348 27973 0.092613663323 76.092613663323 77 70 70 5390 377300
93	400919 2117 348 27973 0.092613663323 76.092613663323 77 70 70 5390 377300
94	403036 2117 348 27973 0.092613663323 76.092613663323 77 70 70 5390 377300
96	405153 2117 348 27973 0.092613663323 76.092613663323 77 70 70 5390 377300
97	407270 6375 149 28139 0.008767368293 77.008767368293 232 70 70 16240 1136800
99	413645 6375 149 28139 0.008767368293 77.008767368293 232 70 70 16240 1136800
100	420020 6607 149 28139 0.008767368293 77.008767368293 232 70 70 16240 1136800
102	426627 6607 149 28139 0.008767368293 77.008767368293 232 70 70 16240 1136800
107	433234 4254 0 27973 0 76.092613663323 156 0 1 77 77
108	437488 2656 338 27963 0.092559663323 76.092559663323 77 24000000 24000000 1848000000 4.4352e+16
110	440144 6607 149 28139 0.008767368293 77.008767368293 232 42 42 9744 409248
111	446751 2194 338 27963 0.092559663323 76.092559663323 77 70 70 5390 377300
112	448945 2194 336 27961 0.092559663323 76.092559663323 77 42 42 3234 135828
113	451139 6607 149 28139 0.008767368293 77.008767368293 232 70 70 16240 1136800
121	457746 4264 0 27974 0 76.092613663323 157 0 3 387 1005
122	462010 16994 0 28138 0 77.008767368293 619 0 3 1006 2398
123	479004 8468 339 27974 0.092559663323 76.092613663323 308 0 2 308 462
124	487472 10 0 0 0 0 1 0 0 0 0
133	487482 2194 333 27958 0.092559663323 76.092559663323 77 14 14 1078 15092
134	489676 6607 152 28142 0.008767368293 77.008767368293 232 14 14 3248 45472
135	496283 6741 0 28142 0 77.008767368293 233 0 232 27028 4189340
136	503024 10 0 0 0 0 1 0 0 0 0
137	503034 10 0 0 0 0 1 0 0 0 0
142	503044 4334 0 28058 0 77.007103605871 161 0 1 78 78
143	507378 4490 0 28058 0 77.007103605871 161 0 560 43680 24460800
144	511868 2142 68 28058 0.007103605871 77.007103605871 78 0 0 0 0
145	514010 2298 66 28056 0.007103605871 77.007103605871 78 560 560 43680 24460800
146	516308 12778 424 28056 0.1 77 770 0 5600 431200 2414720000
147	529086 2298 68 28058 0.007103605871 77.007103605871 78 560 560 43680 24460800
148	531384 12778 426 28058 0.1 77 770 0 5600 431200 2414720000
153	544162 2610 78 28068 0.007157605871 77.007157605871 78 5.4e-05 5.4e-05 0.004212 2.27448e-07
154	546772 4304 0 28068 0 77.007157605871 158 0 1 78 78
155	551076 2187 66 28056 0.007103605871 77.007103605871 78 0 31 1093 22609
156	553263 4304 0 28057 0 77.007103605871 158 0 1 78 78
157	557567 59376 0 28126 0 77.008767301692 2174 0 2 312 624
159	616943 11 0 0 0 0 1 31 31 31 961
160	616954 2220 78 28068 0.007157605871 77.007157605871 78 70 70 5460 382200
162	619174 2220 78 28068 0.007157605871 77.007157605871 78 70 70 5460 382200
163	621394 2220 78 28068 0.007157605871 77.007157605871 78 70 70 5460 382200
165	623614 2220 78 28068 0.007157605871 77.007157605871 78 70 70 5460 382200
166	625834 10942 42 28127 0.00207631699 77.008767301692 387 70 70 27090 1896300
168	636776 10942 42 28127 0.00207631699 77.008767301692 387 70 70 27090 1896300
169	647718 10942 42 28127 0.00207631699 77.008767301692 387 70 70 27090 1896300
171	658660 10942 42 28127 0.00207631699 77.008767301692 387 70 70 27090 1896300
176	669602 4304 0 28068 0 77.007157605871 158 0 1 78 78
177	673906 2688 68 28058 0.007103605871 77.007103605871 78 24000000 24000000 1872000000 4.4928e+16
179	676594 10942 42 28127 0.00207631699 77.008767301692 387 42 42 16254 682668
180	687536 2220 68 28058 0.007103605871 77.007103605871 78 70 70 5460 382200
181	689756 2220 66 28056 0.007103605871 77.007103605871 78 42 42 3276 137592
182	691976 10942 42 28127 0.00207631699 77.008767301692 387 70 70 27090 1896300
190	702918 4314 0 28069 0 77.007157605871 159 0 3 392 1018
191	707232 25404 0 28126 0 77.008767301692 931 0 3 1627 3949
192	732636 8568 69 28069 0.007103605871 77.007157605871 312 0 2 312 468
193	741204 10 0 0 0 0 1 0 0 0 0
202	741214 2220 63 28053 0.007103605871 77.007103605871 78 14 14 1092 15288
203	743434 10943 45 28130 0.00207631699 77.008767301692 387 14 14 5418 75852
204	754377 11232 0 28130 0 77.008767301692 388 0 387 75078 19395150
205	765609 10 0 0 0 0 1 0 0 0 0
206	765619 10 0 0 0 0 1 0 0 0 0
211	765629 4336 0 28108 0 77.008712929697 161 0 1 78 78
212	769965 4492 0 28108 0 77.008712929697 161 0 560 43680 24460800
213	774457 2143 118 28108 0.008712929697 77.008712929697 78 0 0 0 0
214	776600 2299 116 28106 0.008712929697 77.008712929697 78 560 560 43680 24460800
215	778899 12778 474 28106 0.1 77 770 0 5600 431200 2414720000
216	791677 2299 118 28108 0.008712929697 77.008712929697 78 560 560 43680 24460800
217	793976 12778 476 28108 0.1 77 770 0 5600 431200 2414720000
222	806754 2611 128 28118 0.008766929697 77.008766929697 78 5.4e-05 5.4e-05 0.004212 2.27448e-07
223	809365 4306 0 28118 0 77.008766929697 158 0 1 78 78
224	813671 2194 116 28106 0.008712929697 77.008712929697 78 0 29 1089 21157
225	815865 4306 0 28107 0 77.008712929697 158 0 1 78 78
226	820171 67856 0 28119 0 77.008766929697 2482 0 2 312 624
228	888027 11 0 0 0 0 1 31 31 31 961
229	888038 2221 128 28118 0.008766929697 77.008766929697 78 70 70 5460 382200
231	890259 2221 128 28118 0.008766929697 77.008766929697 78 70 70 5460 382200
232	892480 2221 128 28118 0.008766929697 77.008766929697 78 70 70 5460 382200
234	894701 2221 128 28118 0.008766929697 77.008766929697 78 70 70 5460 382200
235	896922 13137 54 28083 0.002076339869 77.007157977866 464 70 70 32480 2273600
237	910059 13137 54 28083 0.002076339869 77.007157977866 464 70 70 32480 2273600
238	923196 13137 54 28083 0.002076339869 77.007157977866 464 70 70 32480 2273600
240	936333 13137 54 28083 0.002076339869 77.007157977866 464 70 70 32480 2273600
245	949470 4306 0 28118 0 77.008766929697 158 0 1 78 78
246	953776 2689 118 28108 0.008712929697 77.008712929697 78 24000000 24000000 1872000000 4.4928e+16
248	956465 13137 54 28083 0.002076339869 77.007157977866 464 42 42 19488 818496
249	969602 2221 118 28108 0.008712929697 77.008712929697 78 70 70 5460 382200
250	971823 2221 116 28106 0.008712929697 77.008712929697 78 42 42 3276 137592
251	974044 13137 54 28083 0.002076339869 77.007157977866 464 70 70 32480 2273600
259	987181 4316 0 28119 0 77.008766929697 159 0 3 392 1018
260	991497 29642 0 28119 0 77.008766929697 1085 0 3 1935 4719
261	1021139 8572 119 28119 0.008712929697 77.008766929697 312 0 2 312 468
262	1029711 10 0 0 0 0 1 0 0 0 0
271	1029721 2221 113 28103 0.008712929697 77.008712929697 78 14 14 1092 15288
272	1031942 13138 57 28086 0.002076339869 77.007157977866 464 14 14 6496 90944
273	1045080 13504 0 28086 0 77.007157977866 465 0 464 107880 33406840
274	1058584 10 0 0 0 0 1 0 0 0 0
275	1058594 10 0 0 0 0 1 0 0 0 0
280	1058604 4334 0 28013 0 77.002021839912 161 0 1 78 78
281	1062938 4490 0 28013 0 77.002021839912 161 0 560 43680 24460800
282	1067428 2142 23 28013 0.002021839912 77.002021839912 78 0 0 0 0
283	1069570 2298 21 28011 0.002021839912 77.002021839912 78 560 560 43680 24460800
284	1071868 12778 379 28011 0.1 77 770 0 5600 431200 2414720000
285	1084646 2298 23 28013 0.002021839912 77.002021839912 78 560 560 43680 24460800
286	1086944 12778 381 28013 0.1 77 770 0 5600 431200 2414720000
291	1099722 2610 33 28023 0.002075839912 77.002075839912 78 5.4e-05 5.4e-05 0.004212 2.27448e-07
292	1102332 4304 0 28023 0 77.002075839912 158 0 1 78 78
293	1106636 2193 21 28011 0.002021839912 77.002021839912 78 0 31 1200 24908
294	1108829 4304 0 28012 0 77.002021839912 158 0 1 78 78
295	1113133 50914 0 28150 0 77.008767429654 1866 0 2 312 624
297	1164047 11 0 0 0 0 1 31 31 31 961
298	1164058 2220 33 28023 0.002075839912 77.002075839912 78 70 70 5460 382200
300	1166278 2220 33 28023 0.002075839912 77.002075839912 78 70 70 5460 382200
301	1168498 2220 33 28023 0.002075839912 77.002075839912 78 70 70 5460 382200
303	1170718 2220 33 28023 0.002075839912 77.002075839912 78 70 70 5460 382200
304	1172938 8750 99 28151 0.007158082949 77.008767429654 310 70 70 21700 1519000
306	1181688 8750 99 28151 0.007158082949 77.008767429654 310 70 70 21700 1519000
307	1190438 8750 99 28151 0.007158082949 77.008767429654 310 70 70 21700 1519000
309	1199188 8750 99 28151 0.007158082949 77.008767429654 310 70 70 21700 1519000
314	1207938 4304 0 28023 0 77.002075839912 158 0 1 78 78
315	1212242 2688 23 28013 0.002021839912 77.002021839912 78 24000000 24000000 1872000000 4.4928e+16
317	1214930 8750 99 28151 0.007158082949 77.008767429654 310 42 42 13020 546840
318	1223680 2220 23 28013 0.002021839912 77.002021839912 78 70 70 5460 382200
319	1225900 2220 21 28011 0.002021839912 77.002021839912 78 42 42 3276 137592
320	1228120 8750 99 28151 0.007158082949 77.008767429654 310 70 70 21700 1519000
328	1236870 4314 0 28024 0 77.002075839912 159 0 3 392 1018
329	1241184 21173 0 28150 0 77.008767429654 777 0 3 1319 3179
330	1262357 8568 24 28024 0.002021839912 77.002075839912 312 0 2 312 468
331	1270925 10 0 0 0 0 1 0 0 0 0
340	1270935 2220 18 28008 0.002021839912 77.002021839912 78 14 14 1092 15288
341	1273155 8751 102 28154 0.007158082949 77.008767429654 310 14 14 4340 60760
342	1281906 8963 0 28154 0 77.008767429654 311 0 310 48205 9978435
343	1290869 10 0 0 0 0 1 0 0 0 0
344	1290879 10 0 0 0 0 1 0 0 0 0
349	1290889 4282 0 27882 0 76.083261984284 159 0 1 77 77
350	1295171 4436 0 27882 0 76.083261984284 159 0 560 43120 24147200
351	1299607 2116 257 27882 0.083261984284 76.083261984284 77 0 0 0 0
352	1301723 2270 255 27880 0.083261984284 76.083261984284 77 560 560 43120 24147200
353	1303993 12617 613 27880 0.1 76 760 0 5600 425600 2383360000
354	1316610 2270 257 27882 0.083261984284 76.083261984284 77 560 560 43120 24147200
355	1318880 12617 615 27882 0.1 76 760 0 5600 425600 2383360000
360	1331497 2578 267 27892 0.083315984284 76.083315984284 77 5.4e-05 5.4e-05 0.004158 2.24532e-07
361	1334075 4252 0 27892 0 76.083315984284 156 0 1 77 77
362	1338327 2175 255 27880 0.083261984284 76.083261984284 77 0 31 1356 29910
363	1340502 4252 0 27881 0 76.083261984284 156 0 1 77 77
364	1344754 42244 0 28144 0 77.008767423383 1550 0 2 308 616
366	1386998 11 0 0 0 0 1 31 31 31 961
367	1387009 2193 267 27892 0.083315984284 76.083315984284 77 70 70 5390 377300
369	1389202 2193 267 27892 0.083315984284 76.083315984284 77 70 70 5390 377300
370	1391395 2193 267 27892 0.083315984284 76.083315984284 77 70 70 5390 377300
372	1393588 2193 267 27892 0.083315984284 76.083315984284 77 70 70 5390 377300
373	1395781 6557 36 28145 0.00207620342 77.008767423383 233 70 70 16310 1141700
375	1402338 6557 36 28145 0.00207620342 77.008767423383 233 70 70 16310 1141700
376	1408895 6557 36 28145 0.00207620342 77.008767423383 233 70 70 16310 1141700
378	1415452 6557 36 28145 0.00207620342 77.008767423383 233 70 70 16310 1141700
383	1422009 4252 0 27892 0 76.083315984284 156 0 1 77 77
384	1426261 2655 257 27882 0.083261984284 76.083261984284 77 24000000 24000000 1848000000 4.4352e+16
386	1428916 6557 36 28145 0.00207620342 77.008767423383 233 42 42 9786 411012
387	1435473 2193 257 27882 0.083261984284 76.083261984284 77 70 70 5390 377300
388	1437666 2193 255 27880 0.083261984284 76.083261984284 77 42 42 3234 135828
389	1439859 6557 36 28145 0.00207620342 77.008767423383 233 70 70 16310 1141700
397	1446416 4262 0 27893 0 76.083315984284 157 0 3 387 1005
398	1450678 16890 0 28144 0 77.008767423383 621 0 3 1010 2408
399	1467568 8464 258 27893 0.083261984284 76.083315984284 308 0 2 308 462
400	1476032 10 0 0 0 0 1 0 0 0 0
409	1476042 2193 252 27877 0.083261984284 76.083261984284 77 14 14 1078 15092
410	1478235 6557 39 28148 0.00207620342 77.008767423383 233 14 14 3262 45668
411	1484792 6692 0 28148 0 77.008767423383 234 0 233 27261 4243629
412	1491484 10 0 0 0 0 1 0 0 0 0
413	1491494 10 0 0 0 0 1 0 0 0 0
418	1491504 4282 0 27837 0 76.077815675689 159 0 1 77 77
419	1495786 4436 0 27837 0 76.077815675689 159 0 560 43120 24147200
420	1500222 2116 212 27837 0.077815675689 76.077815675689 77 0 0 0 0
421	1502338 2270 210 27835 0.077815675689 76.077815675689 77 560 560 43120 24147200
422	1504608 12617 568 27835 0.1 76 760 0 5600 425600 2383360000
423	1517225 2270 212 27837 0.077815675689 76.077815675689 77 560 560 43120 24147200
424	1519495 12617 570 27837 0.1 76 760 0 5600 425600 2383360000
429	1532112 2578 222 27847 0.077869675689 76.077869675689 77 5.4e-05 5.4e-05 0.004158 2.24532e-07
430	1534690 4252 0 27847 0 76.077869675689 156 0 1 77 77
431	1538942 2163 210 27835 0.077815675689 76.077815675689 77 0 31 1113 23299
432	1541105 4252 0 27836 0 76.077815675689 156 0 1 77 77
433	1545357 51026 0 28120 0 77.008767190496 1858 0 2 308 616
435	1596383 11 0 0 0 0 1 31 31 31 961
436	1596394 2193 222 27847 0.077869675689 76.077869675689 77 70 70 5390 377300
438	1598587 2193 222 27847 0.077869675689 76.077869675689 77 70 70 5390 377300
439	1600780 2193 222 27847 0.077869675689 76.077869675689 77 70 70 5390 377300
441	1602973 2193 222 27847 0.077869675689 76.077869675689 77 70 70 5390 377300
442	1605166 8830 105 28121 0.007158155291 77.008767190496 310 70 70 21700 1519000
444	1613996 8830 105 28121 0.007158155291 77.008767190496 310 70 70 21700 1519000
445	1622826 8830 105 28121 0.007158155291 77.008767190496 310 70 70 21700 1519000
447	1631656 8830 105 28121 0.007158155291 77.008767190496 310 70 70 21700 1519000
452	1640486 4252 0 27847 0 76.077869675689 156 0 1 77 77
453	1644738 2655 212 27837 0.077815675689 76.077815675689 77 24000000 24000000 1848000000 4.4352e+16
455	1647393 8830 105 28121 0.007158155291 77.008767190496 310 42 42 13020 546840
456	1656223 2193 212 27837 0.077815675689 76.077815675689 77 70 70 5390 377300
457	1658416 2193 210 27835 0.077815675689 76.077815675689 77 42 42 3234 135828
458	1660609 8830 105 28121 0.007158155291 77.008767190496 310 70 70 21700 1519000
466	1669439 4262 0 27848 0 76.077869675689 157 0 3 387 1005
467	1673701 21281 0 28120 0 77.008767190496 775 0 3 1318 3178
468	1694982 8464 213 27848 0.077815675689 76.077869675689 308 0 2 308 462
469	1703446 10 0 0 0 0 1 0 0 0 0
478	1703456 2193 207 27832 0.077815675689 76.077815675689 77 14 14 1078 15092
479	1705649 8830 108 28124 0.007158155291 77.008767190496 310 14 14 4340 60760
480	1714479 9042 0 28124 0 77.008767190496 311 0 310 48205 9978435
481	1723521 10 0 0 0 0 1 0 0 0 0
482	1723531 10 0 0 0 0 1 0 0 0 0
487	1723541 4284 0 27922 0 76.087001214526 159 0 1 77 77
488	1727825 4438 0 27922 0 76.087001214526 159 0 560 43120 24147200
489	1732263 2117 297 27922 0.087001214526 76.087001214526 77 0 0 0 0
490	1734380 2271 295 27920 0.087001214526 76.087001214526 77 560 560 43120 24147200
491	1736651 12627 653 27920 0.1 76 760 0 5600 425600 2383360000
492	1749278 2271 297 27922 0.087001214526 76.087001214526 77 560 560 43120 24147200
493	1751549 12627 655 27922 0.1 76 760 0 5600 425600 2383360000
498	1764176 2579 307 27932 0.087055214526 76.087055214526 77 5.4e-05 5.4e-05 0.004158 2.24532e-07
499	1766755 4254 0 27932 0 76.087055214526 156 0 1 77 77
500	1771009 2167 295 27920 0.087001214526 76.087001214526 77 0 31 1142 23898
501	1773176 4254 0 27921 0 76.087001214526 156 0 1 77 77
502	1777430 42560 0 28132 0 77.008767316545 1550 0 2 308 616
504	1819990 11 0 0 0 0 1 31 31 31 961
505	1820001 2194 307 27932 0.087055214526 76.087055214526 77 70 70 5390 377300
507	1822195 2194 307 27932 0.087055214526 76.087055214526 77 70 70 5390 377300
508	1824389 2194 307 27932 0.087055214526 76.087055214526 77 70 70 5390 377300
510	1826583 2194 307 27932 0.087055214526 76.087055214526 77 70 70 5390 377300
511	1828777 6634 87 28133 0.007157973352 77.008767316545 233 70 70 16310 1141700
513	1835411 6634 87 28133 0.007157973352 77.008767316545 233 70 70 16310 1141700
514	1842045 6634 87 28133 0.007157973352 77.008767316545 233 70 70 16310 1141700
516	1848679 6634 87 28133 0.007157973352 77.008767316545 233 70 70 16310 1141700
521	1855313 4254 0 27932 0 76.087055214526 156 0 1 77 77
522	1859567 2656 297 27922 0.087001214526 76.087001214526 77 24000000 24000000 1848000000 4.4352e+16
524	1862223 6634 87 28133 0.007157973352 77.008767316545 233 42 42 9786 411012
525	1868857 2194 297 27922 0.087001214526 76.087001214526 77 70 70 5390 377300
526	1871051 2194 295 27920 0.087001214526 76.087001214526 77 42 42 3234 135828
527	1873245 6634 87 28133 0.007157973352 77.008767316545 233 70 70 16310 1141700
535	1879879 4264 0 27933 0 76.087055214526 157 0 3 387 1005
536	1884143 17046 0 28132 0 77.008767316545 621 0 3 1010 2408
537	1901189 8468 298 27933 0.087001214526 76.087055214526 308 0 2 308 462
538	1909657 10 0 0 0 0 1 0 0 0 0
547	1909667 2194 292 27917 0.087001214526 76.087001214526 77 14 14 1078 15092
548	1911861 6634 90 28136 0.007157973352 77.008767316545 233 14 14 3262 45668
549	1918495 6769 0 28136 0 77.008767316545 234 0 233 27261 4243629
550	1925264 10 0 0 0 0 1 0 0 0 0
551	1925274 10 0 0 0 0 1 0 0 0 0
8	1925284 177 28160 28160 76.1 77.056804456376 11 0 5600 5600 31360000
10	1925461 188 28160 28160 76.1 77.056804456376 11 0 5600 5600 31360000
77	1925649 188 28160 28160 76.1 77.056804456376 11 0 5600 5600 31360000
79	1925837 188 28160 28160 76.1 77.056804456376 11 0 5600 5600 31360000
146	1926025 42 28160 28160 77.056804456376 77.056804456376 1 9858.3814673491 9858.3814673491 9858.3814673491 97187685.155773
148	1926067 42 28160 28160 77.056804456376 77.056804456376 1 9858.3814673491 9858.3814673491 9858.3814673491 97187685.155773
215	1926109 42 28160 28160 77.056804456376 77.056804456376 1 9858.3814673491 9858.3814673491 9858.3814673491 97187685.155773
217	1926151 42 28160 28160 77.056804456376 77.056804456376 1 9858.3814673491 9858.3814673491 9858.3814673491 97187685.155773
284	1926193 42 28160 28160 77.056804456376 77.056804456376 1 9858.3814673491 9858.3814673491 9858.3814673491 97187685.155773
286	1926235 42 28160 28160 77.056804456376 77.056804456376 1 9858.3814673491 9858.3814673491 9858.3814673491 97187685.155773
353	1926277 199 28160 28160 76.1 77.056804456376 11 0 5600 5600 31360000
355	1926476 199 28160 28160 76.1 77.056804456376 11 0 5600 5600 31360000
422	1926675 199 28160 28160 76.1 77.056804456376 11 0 5600 5600 31360000
424	1926874 199 28160 28160 76.1 77.056804456376 11 0 5600 5600 31360000
491	1927073 199 28160 28160 76.1 77.056804456376 11 0 5600 5600 31360000
493	1927272 199 28160 28160 76.1 77.056804456376 11 0 5600 5600 31360000

