version 3
run General-0-20260211-16:26:29-7445
attr configname General
attr datetime 20260211-16:26:29
attr datetimef 20260211-162629
attr experiment General
attr inifile omnetpp.ini
attr iterationvars ""
attr iterationvarsd ""
attr iterationvarsf ""
attr measurement ""
attr network ZrpTestNetwork
attr processid 7445
attr repetition 0
attr replication #0
attr resultdir results
attr runnumber 0
attr seedset 0
config image-path ../../inet-4.5.4/images
config network ZrpTestNetwork
config sim-time-limit 100s
config *.configurator.addStaticRoutes false
config **.netmaskRoutes "\"\""
config **.arp.typename GlobalArp
config **.wlan[*].bitrate 24Mbps
config **.transmitter.power 1mW
config **.displayCommunicationRanges true
config **.constraintAreaMaxX 400m
config **.constraintAreaMaxY 400m
config **.constraintAreaMinX 0m
config **.constraintAreaMinY 0m
config *.source.numApps 2
config *.source.app[0].typename PingApp
config *.source.app[0].destAddr "\"destination\""
config *.source.app[0].startTime 10s
config *.source.app[0].sendInterval 1s
config *.source.app[0].printPing true
config *.source.app[1].typename sa_zrp.Zrp
config *.destination.numApps 1
config *.destination.app[0].typename sa_zrp.Zrp
config *.node*.numApps 1
config *.node*.app[0].typename sa_zrp.Zrp
config **.app[*].zoneRadius 2
config **.app[*].NDP_helloInterval 1s
config **.app[*].IARP_updateInterval 2s
config **.app[*].linkStateLifetime 5s
config **.app[*].interface "\"wlan0\""
config **.app[*].debugInterval 5s
config *.visualizer.*.numDataLinkVisualizers 3
config *.visualizer.*.dataLinkVisualizer[*].activityLevel "\"peer\""
config *.visualizer.*.dataLinkVisualizer[*].displayLinks true
config *.visualizer.*.dataLinkVisualizer[0].packetFilter "\"NDP_Hello\""
config *.visualizer.*.dataLinkVisualizer[0].*Color "\"green\""
config *.visualizer.*.dataLinkVisualizer[1].packetFilter "\"IARP_LinkStateUpdate\""
config *.visualizer.*.dataLinkVisualizer[1].*Color "\"orange\""
config *.visualizer.*.dataLinkVisualizer[2].packetFilter "\"ping*\""
config *.visualizer.*.dataLinkVisualizer[2].*Color "\"blue\""
config *.visualizer.*.networkRouteVisualizer[0].displayRoutes true
config *.visualizer.*.networkRouteVisualizer[0].packetFilter "\"*ping*\""
config *.visualizer.*.routingTableVisualizer[0].displayRoutingTables true
config *.visualizer.*.routingTableVisualizer[0].displayLabels false
config *.visualizer.*.routingTableVisualizer[0].displayRoutesIndividually false
config *.visualizer.*.routingTableVisualizer[0].lineShift 0
config *.visualizer.*.interfaceTableVisualizer[0].displayInterfaceTables true
config *.visualizer.*.interfaceTableVisualizer[0].format "\"%a/%l\""
config *.visualizer.*.mediumVisualizer[0].displaySignals true
config *.visualizer.*.mediumVisualizer[0].signalPropagationAnimationSpeed 500
config *.visualizer.*.infoVisualizer[0].displayInfos true
config *.visualizer.*.infoVisualizer[0].modules "\"*.*.app[0]\""
config *.visualizer.*.infoVisualizer[0].format "\"N:%p, Z:%t\""

par ZrpTestNetwork.radioMedium.propagation typename "\"inet.physicallayer.wireless.common.propagation.ConstantSpeedPropagation\""
par ZrpTestNetwork.radioMedium.propagation propagationSpeed 2.99792e+08mps
attr unit mps
par ZrpTestNetwork.radioMedium.propagation ignoreMovementDuringTransmission true
par ZrpTestNetwork.radioMedium.propagation ignoreMovementDuringPropagation true
par ZrpTestNetwork.radioMedium.propagation ignoreMovementDuringReception true
scalar ZrpTestNetwork.radioMedium.propagation "Arrival computation count" 896
par ZrpTestNetwork.radioMedium.analogModel typename "\"inet.physicallayer.wireless.common.analogmodel.packetlevel.ScalarAnalogModel\""
par ZrpTestNetwork.radioMedium.analogModel ignorePartialInterference false
par ZrpTestNetwork.radioMedium.backgroundNoise typename "\"inet.physicallayer.wireless.common.backgroundnoise.IsotropicScalarBackgroundNoise\""
par ZrpTestNetwork.radioMedium.backgroundNoise power -110dBm
attr unit dBm
par ZrpTestNetwork.radioMedium.backgroundNoise bandwidth "nan Hz"
attr unit Hz
par ZrpTestNetwork.radioMedium.pathLoss typename "\"inet.physicallayer.wireless.common.pathloss.FreeSpacePathLoss\""
par ZrpTestNetwork.radioMedium.pathLoss alpha 2
par ZrpTestNetwork.radioMedium.pathLoss systemLoss 0dB
attr unit dB
par ZrpTestNetwork.radioMedium.mediumLimitCache typename "\"inet.physicallayer.wireless.common.medium.MediumLimitCache\""
par ZrpTestNetwork.radioMedium.mediumLimitCache centerFrequency 2.4e+09Hz
attr unit Hz
par ZrpTestNetwork.radioMedium.mediumLimitCache maxSpeed "nan mps"
attr unit mps
par ZrpTestNetwork.radioMedium.mediumLimitCache maxTransmissionPower "nan W"
attr unit W
par ZrpTestNetwork.radioMedium.mediumLimitCache minInterferencePower -110dBm
attr unit dBm
par ZrpTestNetwork.radioMedium.mediumLimitCache minReceptionPower -85dBm
attr unit dBm
par ZrpTestNetwork.radioMedium.mediumLimitCache maxAntennaGain 0dB
attr unit dB
par ZrpTestNetwork.radioMedium.mediumLimitCache minInterferenceTime 1e-12s
attr unit s
par ZrpTestNetwork.radioMedium.mediumLimitCache maxTransmissionDuration 0.01s
attr unit s
par ZrpTestNetwork.radioMedium.mediumLimitCache maxCommunicationRange "nan m"
attr unit m
par ZrpTestNetwork.radioMedium.mediumLimitCache maxInterferenceRange "nan m"
attr unit m
par ZrpTestNetwork.radioMedium.communicationCache typename "\"inet.physicallayer.wireless.common.communicationcache.VectorCommunicationCache\""
par ZrpTestNetwork.radioMedium typename "\"inet.physicallayer.wireless.ieee80211.packetlevel.Ieee80211ScalarRadioMedium\""
par ZrpTestNetwork.radioMedium physicalEnvironmentModule "\"physicalEnvironment\""
par ZrpTestNetwork.radioMedium signalAnalogRepresentation "\"scalar\""
attr enum unitDisk,scalar,dimensional
par ZrpTestNetwork.radioMedium rangeFilter "\"\""
par ZrpTestNetwork.radioMedium radioModeFilter false
par ZrpTestNetwork.radioMedium listeningFilter false
par ZrpTestNetwork.radioMedium macAddressFilter false
par ZrpTestNetwork.radioMedium recordTransmissionLog false
par ZrpTestNetwork.radioMedium recordReceptionLog false
scalar ZrpTestNetwork.radioMedium "transmission count" 128
scalar ZrpTestNetwork.radioMedium "signal send count" 896
scalar ZrpTestNetwork.radioMedium "reception computation count" 891
scalar ZrpTestNetwork.radioMedium "interference computation count" 2812
scalar ZrpTestNetwork.radioMedium "reception decision computation count" 479
scalar ZrpTestNetwork.radioMedium "listening decision computation count" 1442
scalar ZrpTestNetwork.radioMedium "reception cache hit" 82.176435287057
attr unit %
scalar ZrpTestNetwork.radioMedium "interference cache hit" 66.666666666667
attr unit %
scalar ZrpTestNetwork.radioMedium "noise cache hit" 0
attr unit %
scalar ZrpTestNetwork.radioMedium "snir cache hit" 50
attr unit %
scalar ZrpTestNetwork.radioMedium "reception decision cache hit" 50
attr unit %
scalar ZrpTestNetwork.radioMedium "reception result cache hit" 0
attr unit %
par ZrpTestNetwork.configurator typename "\"inet.networklayer.configurator.ipv4.Ipv4NetworkConfigurator\""
par ZrpTestNetwork.configurator minLinkWeight 0.001
par ZrpTestNetwork.configurator configureIsolatedNetworksSeparatly false
par ZrpTestNetwork.configurator config "<config>...</config> at content:1"
par ZrpTestNetwork.configurator assignAddresses true
par ZrpTestNetwork.configurator assignUniqueAddresses true
par ZrpTestNetwork.configurator assignDisjunctSubnetAddresses true
par ZrpTestNetwork.configurator addStaticRoutes false
par ZrpTestNetwork.configurator addDefaultRoutes true
par ZrpTestNetwork.configurator addSubnetRoutes true
par ZrpTestNetwork.configurator addDirectRoutes true
par ZrpTestNetwork.configurator optimizeRoutes true
par ZrpTestNetwork.configurator dumpTopology false
par ZrpTestNetwork.configurator dumpLinks false
par ZrpTestNetwork.configurator dumpAddresses false
par ZrpTestNetwork.configurator dumpRoutes false
par ZrpTestNetwork.configurator dumpConfig "\"\""
par ZrpTestNetwork.visualizer.canvasVisualizer.sceneVisualizer[0] typename "\"inet.visualizer.canvas.scene.SceneCanvasVisualizer\""
par ZrpTestNetwork.visualizer.canvasVisualizer.sceneVisualizer[0] visualizationTargetModule "\"^.^.^\""
par ZrpTestNetwork.visualizer.canvasVisualizer.sceneVisualizer[0] visualizationSubjectModule "\"^.^.^\""
par ZrpTestNetwork.visualizer.canvasVisualizer.sceneVisualizer[0] tags "\"\""
par ZrpTestNetwork.visualizer.canvasVisualizer.sceneVisualizer[0] physicalEnvironmentModule "\"physicalEnvironment\""
par ZrpTestNetwork.visualizer.canvasVisualizer.sceneVisualizer[0] networkNodeVisualizerModule "\"ZrpTestNetwork.visualizer.canvasVisualizer.networkNodeVisualizer[0]\""
par ZrpTestNetwork.visualizer.canvasVisualizer.sceneVisualizer[0] axisLength "nan m"
attr mutable ""
attr unit m
par ZrpTestNetwork.visualizer.canvasVisualizer.sceneVisualizer[0] animationSpeed 0
par ZrpTestNetwork.visualizer.canvasVisualizer.sceneVisualizer[0] sceneMinX "nan m"
attr unit m
par ZrpTestNetwork.visualizer.canvasVisualizer.sceneVisualizer[0] sceneMinY "nan m"
attr unit m
par ZrpTestNetwork.visualizer.canvasVisualizer.sceneVisualizer[0] sceneMinZ "nan m"
attr unit m
par ZrpTestNetwork.visualizer.canvasVisualizer.sceneVisualizer[0] sceneMaxX "nan m"
attr unit m
par ZrpTestNetwork.visualizer.canvasVisualizer.sceneVisualizer[0] sceneMaxY "nan m"
attr unit m
par ZrpTestNetwork.visualizer.canvasVisualizer.sceneVisualizer[0] sceneMaxZ "nan m"
attr unit m
par ZrpTestNetwork.visualizer.canvasVisualizer.sceneVisualizer[0] zIndex 0
par ZrpTestNetwork.visualizer.canvasVisualizer.sceneVisualizer[0] viewAngle "\"x right y down z out\""
attr mutable ""
par ZrpTestNetwork.visualizer.canvasVisualizer.sceneVisualizer[0] viewScale "\"1 1\""
attr mutable ""
par ZrpTestNetwork.visualizer.canvasVisualizer.sceneVisualizer[0] viewTranslation "\"0 0\""
attr mutable ""
par ZrpTestNetwork.visualizer.canvasVisualizer.sceneVisualizer[0] descriptionFigure "\"\""
par ZrpTestNetwork.visualizer.canvasVisualizer.physicalEnvironmentVisualizer[0] typename "\"inet.visualizer.canvas.environment.PhysicalEnvironmentCanvasVisualizer\""
par ZrpTestNetwork.visualizer.canvasVisualizer.physicalEnvironmentVisualizer[0] visualizationTargetModule "\"^.^.^\""
par ZrpTestNetwork.visualizer.canvasVisualizer.physicalEnvironmentVisualizer[0] visualizationSubjectModule "\"^.^.^\""
par ZrpTestNetwork.visualizer.canvasVisualizer.physicalEnvironmentVisualizer[0] tags "\"\""
par ZrpTestNetwork.visualizer.canvasVisualizer.physicalEnvironmentVisualizer[0] physicalEnvironmentModule "\"physicalEnvironment\""
par ZrpTestNetwork.visualizer.canvasVisualizer.physicalEnvironmentVisualizer[0] displayObjects true
par ZrpTestNetwork.visualizer.canvasVisualizer.physicalEnvironmentVisualizer[0] zIndex 0
par ZrpTestNetwork.visualizer.canvasVisualizer.networkNodeVisualizer[0] typename "\"inet.visualizer.canvas.scene.NetworkNodeCanvasVisualizer\""
par ZrpTestNetwork.visualizer.canvasVisualizer.networkNodeVisualizer[0] visualizationTargetModule "\"^.^.^\""
par ZrpTestNetwork.visualizer.canvasVisualizer.networkNodeVisualizer[0] visualizationSubjectModule "\"^.^.^\""
par ZrpTestNetwork.visualizer.canvasVisualizer.networkNodeVisualizer[0] tags "\"\""
par ZrpTestNetwork.visualizer.canvasVisualizer.networkNodeVisualizer[0] nodeFilter "\"*\""
attr mutable ""
par ZrpTestNetwork.visualizer.canvasVisualizer.networkNodeVisualizer[0] annotationSpacing 4
par ZrpTestNetwork.visualizer.canvasVisualizer.networkNodeVisualizer[0] placementPenalty 10
par ZrpTestNetwork.visualizer.canvasVisualizer.networkNodeVisualizer[0] zIndex 0
par ZrpTestNetwork.visualizer.canvasVisualizer.networkConnectionVisualizer[0] typename "\"inet.visualizer.canvas.scene.NetworkConnectionCanvasVisualizer\""
par ZrpTestNetwork.visualizer.canvasVisualizer.networkConnectionVisualizer[0] visualizationTargetModule "\"^.^.^\""
par ZrpTestNetwork.visualizer.canvasVisualizer.networkConnectionVisualizer[0] visualizationSubjectModule "\"^.^.^\""
par ZrpTestNetwork.visualizer.canvasVisualizer.networkConnectionVisualizer[0] tags "\"\""
par ZrpTestNetwork.visualizer.canvasVisualizer.networkConnectionVisualizer[0] displayNetworkConnections true
par ZrpTestNetwork.visualizer.canvasVisualizer.networkConnectionVisualizer[0] nodeFilter "\"\""
attr mutable ""
par ZrpTestNetwork.visualizer.canvasVisualizer.networkConnectionVisualizer[0] lineColor "\"black\""
par ZrpTestNetwork.visualizer.canvasVisualizer.networkConnectionVisualizer[0] lineStyle "\"solid\""
par ZrpTestNetwork.visualizer.canvasVisualizer.networkConnectionVisualizer[0] lineWidth 1
par ZrpTestNetwork.visualizer.canvasVisualizer.networkConnectionVisualizer[0] zIndex 0
par ZrpTestNetwork.visualizer.canvasVisualizer.mobilityVisualizer[0] typename "\"inet.visualizer.canvas.mobility.MobilityCanvasVisualizer\""
par ZrpTestNetwork.visualizer.canvasVisualizer.mobilityVisualizer[0] visualizationTargetModule "\"^.^.^\""
par ZrpTestNetwork.visualizer.canvasVisualizer.mobilityVisualizer[0] visualizationSubjectModule "\"^.^.^\""
par ZrpTestNetwork.visualizer.canvasVisualizer.mobilityVisualizer[0] tags "\"\""
par ZrpTestNetwork.visualizer.canvasVisualizer.mobilityVisualizer[0] networkNodeVisualizerModule "\"ZrpTestNetwork.visualizer.canvasVisualizer.networkNodeVisualizer[0]\""
par ZrpTestNetwork.visualizer.canvasVisualizer.mobilityVisualizer[0] displayMobility true
par ZrpTestNetwork.visualizer.canvasVisualizer.mobilityVisualizer[0] animationSpeed 0
par ZrpTestNetwork.visualizer.canvasVisualizer.mobilityVisualizer[0] moduleFilter "\"**.mobility\""
attr mutable ""
par ZrpTestNetwork.visualizer.canvasVisualizer.mobilityVisualizer[0] displayPositions false
par ZrpTestNetwork.visualizer.canvasVisualizer.mobilityVisualizer[0] positionCircleRadius 4
par ZrpTestNetwork.visualizer.canvasVisualizer.mobilityVisualizer[0] positionCircleLineWidth 1
par ZrpTestNetwork.visualizer.canvasVisualizer.mobilityVisualizer[0] positionCircleLineColor "\"dark\""
par ZrpTestNetwork.visualizer.canvasVisualizer.mobilityVisualizer[0] positionCircleFillColor "\"dark\""
par ZrpTestNetwork.visualizer.canvasVisualizer.mobilityVisualizer[0] displayOrientations false
par ZrpTestNetwork.visualizer.canvasVisualizer.mobilityVisualizer[0] orientationPieRadius 32
par ZrpTestNetwork.visualizer.canvasVisualizer.mobilityVisualizer[0] orientationPieSize 0.2
par ZrpTestNetwork.visualizer.canvasVisualizer.mobilityVisualizer[0] orientationPieOpacity 0.25
par ZrpTestNetwork.visualizer.canvasVisualizer.mobilityVisualizer[0] orientationLineColor "\"black\""
par ZrpTestNetwork.visualizer.canvasVisualizer.mobilityVisualizer[0] orientationLineStyle "\"solid\""
par ZrpTestNetwork.visualizer.canvasVisualizer.mobilityVisualizer[0] orientationLineWidth 1
par ZrpTestNetwork.visualizer.canvasVisualizer.mobilityVisualizer[0] orientationFillColor "\"blue\""
par ZrpTestNetwork.visualizer.canvasVisualizer.mobilityVisualizer[0] displayVelocities false
par ZrpTestNetwork.visualizer.canvasVisualizer.mobilityVisualizer[0] velocityArrowScale 1
par ZrpTestNetwork.visualizer.canvasVisualizer.mobilityVisualizer[0] velocityLineColor "\"black\""
par ZrpTestNetwork.visualizer.canvasVisualizer.mobilityVisualizer[0] velocityLineStyle "\"solid\""
par ZrpTestNetwork.visualizer.canvasVisualizer.mobilityVisualizer[0] velocityLineWidth 1
par ZrpTestNetwork.visualizer.canvasVisualizer.mobilityVisualizer[0] displayMovementTrails false
par ZrpTestNetwork.visualizer.canvasVisualizer.mobilityVisualizer[0] movementTrailLineColor "\"dark\""
par ZrpTestNetwork.visualizer.canvasVisualizer.mobilityVisualizer[0] movementTrailLineStyle "\"solid\""
par ZrpTestNetwork.visualizer.canvasVisualizer.mobilityVisualizer[0] movementTrailLineWidth 1
par ZrpTestNetwork.visualizer.canvasVisualizer.mobilityVisualizer[0] trailLength 100
par ZrpTestNetwork.visualizer.canvasVisualizer.mobilityVisualizer[0] zIndex 0
par ZrpTestNetwork.visualizer.canvasVisualizer.statisticVisualizer[0] typename "\"inet.visualizer.canvas.common.StatisticCanvasVisualizer\""
par ZrpTestNetwork.visualizer.canvasVisualizer.statisticVisualizer[0] visualizationTargetModule "\"^.^.^\""
par ZrpTestNetwork.visualizer.canvasVisualizer.statisticVisualizer[0] visualizationSubjectModule "\"^.^.^\""
par ZrpTestNetwork.visualizer.canvasVisualizer.statisticVisualizer[0] tags "\"\""
par ZrpTestNetwork.visualizer.canvasVisualizer.statisticVisualizer[0] networkNodeVisualizerModule "\"ZrpTestNetwork.visualizer.canvasVisualizer.networkNodeVisualizer[0]\""
par ZrpTestNetwork.visualizer.canvasVisualizer.statisticVisualizer[0] displayStatistics true
par ZrpTestNetwork.visualizer.canvasVisualizer.statisticVisualizer[0] signalName "\"\""
par ZrpTestNetwork.visualizer.canvasVisualizer.statisticVisualizer[0] statisticName "\"\""
par ZrpTestNetwork.visualizer.canvasVisualizer.statisticVisualizer[0] statisticUnit "\"\""
par ZrpTestNetwork.visualizer.canvasVisualizer.statisticVisualizer[0] statisticExpression "\"\""
par ZrpTestNetwork.visualizer.canvasVisualizer.statisticVisualizer[0] sourceFilter "\"**\""
attr mutable ""
par ZrpTestNetwork.visualizer.canvasVisualizer.statisticVisualizer[0] format "\"%n: %v %u\""
attr mutable ""
par ZrpTestNetwork.visualizer.canvasVisualizer.statisticVisualizer[0] unit "\"\""
par ZrpTestNetwork.visualizer.canvasVisualizer.statisticVisualizer[0] font "\"<default>\""
par ZrpTestNetwork.visualizer.canvasVisualizer.statisticVisualizer[0] textColor "\"black\""
par ZrpTestNetwork.visualizer.canvasVisualizer.statisticVisualizer[0] backgroundColor "\"white\""
par ZrpTestNetwork.visualizer.canvasVisualizer.statisticVisualizer[0] opacity 1
par ZrpTestNetwork.visualizer.canvasVisualizer.statisticVisualizer[0] placementHint "\"top\""
par ZrpTestNetwork.visualizer.canvasVisualizer.statisticVisualizer[0] placementPriority 0
par ZrpTestNetwork.visualizer.canvasVisualizer.statisticVisualizer[0] zIndex 10
par ZrpTestNetwork.visualizer.canvasVisualizer.statisticVisualizer[0] propertyName "\"\""
par ZrpTestNetwork.visualizer.canvasVisualizer.statisticVisualizer[0] propertyIndex "\"\""
par ZrpTestNetwork.visualizer.canvasVisualizer.infoVisualizer[0] typename "\"inet.visualizer.canvas.common.InfoCanvasVisualizer\""
par ZrpTestNetwork.visualizer.canvasVisualizer.infoVisualizer[0] visualizationTargetModule "\"^.^.^\""
par ZrpTestNetwork.visualizer.canvasVisualizer.infoVisualizer[0] visualizationSubjectModule "\"^.^.^\""
par ZrpTestNetwork.visualizer.canvasVisualizer.infoVisualizer[0] tags "\"\""
par ZrpTestNetwork.visualizer.canvasVisualizer.infoVisualizer[0] networkNodeVisualizerModule "\"ZrpTestNetwork.visualizer.canvasVisualizer.networkNodeVisualizer[0]\""
par ZrpTestNetwork.visualizer.canvasVisualizer.infoVisualizer[0] displayInfos true
par ZrpTestNetwork.visualizer.canvasVisualizer.infoVisualizer[0] modules "\"*.*.app[0]\""
attr mutable ""
par ZrpTestNetwork.visualizer.canvasVisualizer.infoVisualizer[0] format "\"N:%p, Z:%t\""
attr mutable ""
par ZrpTestNetwork.visualizer.canvasVisualizer.infoVisualizer[0] font "\"<default>\""
par ZrpTestNetwork.visualizer.canvasVisualizer.infoVisualizer[0] textColor "\"black\""
par ZrpTestNetwork.visualizer.canvasVisualizer.infoVisualizer[0] backgroundColor "\"white\""
par ZrpTestNetwork.visualizer.canvasVisualizer.infoVisualizer[0] opacity 1
par ZrpTestNetwork.visualizer.canvasVisualizer.infoVisualizer[0] placementHint "\"top\""
par ZrpTestNetwork.visualizer.canvasVisualizer.infoVisualizer[0] placementPriority 0
par ZrpTestNetwork.visualizer.canvasVisualizer.infoVisualizer[0] zIndex 10
par ZrpTestNetwork.visualizer.canvasVisualizer.energyStorageVisualizer[0] typename "\"inet.visualizer.canvas.power.EnergyStorageCanvasVisualizer\""
par ZrpTestNetwork.visualizer.canvasVisualizer.energyStorageVisualizer[0] visualizationTargetModule "\"^.^.^\""
par ZrpTestNetwork.visualizer.canvasVisualizer.energyStorageVisualizer[0] visualizationSubjectModule "\"^.^.^\""
par ZrpTestNetwork.visualizer.canvasVisualizer.energyStorageVisualizer[0] tags "\"\""
par ZrpTestNetwork.visualizer.canvasVisualizer.energyStorageVisualizer[0] networkNodeVisualizerModule "\"ZrpTestNetwork.visualizer.canvasVisualizer.networkNodeVisualizer[0]\""
par ZrpTestNetwork.visualizer.canvasVisualizer.energyStorageVisualizer[0] displayEnergyStorages false
par ZrpTestNetwork.visualizer.canvasVisualizer.energyStorageVisualizer[0] energyStorageFilter "\"**\""
par ZrpTestNetwork.visualizer.canvasVisualizer.energyStorageVisualizer[0] color "\"green\""
par ZrpTestNetwork.visualizer.canvasVisualizer.energyStorageVisualizer[0] width 8
par ZrpTestNetwork.visualizer.canvasVisualizer.energyStorageVisualizer[0] height 24
par ZrpTestNetwork.visualizer.canvasVisualizer.energyStorageVisualizer[0] spacing 2
par ZrpTestNetwork.visualizer.canvasVisualizer.energyStorageVisualizer[0] placementHint "\"right\""
par ZrpTestNetwork.visualizer.canvasVisualizer.energyStorageVisualizer[0] placementPriority 0
par ZrpTestNetwork.visualizer.canvasVisualizer.energyStorageVisualizer[0] zIndex 10
par ZrpTestNetwork.visualizer.canvasVisualizer.mediumVisualizer[0] typename "\"inet.visualizer.canvas.physicallayer.MediumCanvasVisualizer\""
par ZrpTestNetwork.visualizer.canvasVisualizer.mediumVisualizer[0] visualizationTargetModule "\"^.^.^\""
par ZrpTestNetwork.visualizer.canvasVisualizer.mediumVisualizer[0] visualizationSubjectModule "\"^.^.^\""
par ZrpTestNetwork.visualizer.canvasVisualizer.mediumVisualizer[0] tags "\"\""
par ZrpTestNetwork.visualizer.canvasVisualizer.mediumVisualizer[0] mediumModule "\"radioMedium\""
par ZrpTestNetwork.visualizer.canvasVisualizer.mediumVisualizer[0] networkNodeVisualizerModule "\"ZrpTestNetwork.visualizer.canvasVisualizer.networkNodeVisualizer[0]\""
par ZrpTestNetwork.visualizer.canvasVisualizer.mediumVisualizer[0] nodeFilter "\"*\""
attr mutable ""
par ZrpTestNetwork.visualizer.canvasVisualizer.mediumVisualizer[0] interfaceFilter "\"*\""
attr mutable ""
par ZrpTestNetwork.visualizer.canvasVisualizer.mediumVisualizer[0] packetFilter "(omnetpp::cValueHolder)holder: \"*\""
attr mutable ""
par ZrpTestNetwork.visualizer.canvasVisualizer.mediumVisualizer[0] displaySignals true
par ZrpTestNetwork.visualizer.canvasVisualizer.mediumVisualizer[0] signalColor "\"dark\""
par ZrpTestNetwork.visualizer.canvasVisualizer.mediumVisualizer[0] signalPropagationAnimationSpeed 500
attr mutable ""
par ZrpTestNetwork.visualizer.canvasVisualizer.mediumVisualizer[0] signalPropagationAnimationTime 1s
attr unit s
par ZrpTestNetwork.visualizer.canvasVisualizer.mediumVisualizer[0] signalPropagationAdditionalTime 0s
attr unit s
par ZrpTestNetwork.visualizer.canvasVisualizer.mediumVisualizer[0] signalTransmissionAnimationSpeed "nan "
attr mutable ""
par ZrpTestNetwork.visualizer.canvasVisualizer.mediumVisualizer[0] signalTransmissionAnimationTime 1s
attr unit s
par ZrpTestNetwork.visualizer.canvasVisualizer.mediumVisualizer[0] signalAnimationSpeedChangeTimeMode "\"realTime\""
attr enum realTime,animationTime,simulationTime
par ZrpTestNetwork.visualizer.canvasVisualizer.mediumVisualizer[0] signalAnimationSpeedChangeTime 1s
attr unit s
par ZrpTestNetwork.visualizer.canvasVisualizer.mediumVisualizer[0] displaySignalDepartures false
par ZrpTestNetwork.visualizer.canvasVisualizer.mediumVisualizer[0] signalDepartureImage "\"misc/signal_departure.png\""
par ZrpTestNetwork.visualizer.canvasVisualizer.mediumVisualizer[0] signalDeparturePlacementHint "\"topCenter\""
par ZrpTestNetwork.visualizer.canvasVisualizer.mediumVisualizer[0] signalDeparturePlacementPriority 1
par ZrpTestNetwork.visualizer.canvasVisualizer.mediumVisualizer[0] displaySignalArrivals false
par ZrpTestNetwork.visualizer.canvasVisualizer.mediumVisualizer[0] signalArrivalImage "\"misc/signal_arrival.png\""
par ZrpTestNetwork.visualizer.canvasVisualizer.mediumVisualizer[0] signalArrivalPlacementHint "\"topCenter\""
par ZrpTestNetwork.visualizer.canvasVisualizer.mediumVisualizer[0] signalArrivalPlacementPriority -1
par ZrpTestNetwork.visualizer.canvasVisualizer.mediumVisualizer[0] displayCommunicationRanges true
par ZrpTestNetwork.visualizer.canvasVisualizer.mediumVisualizer[0] communicationRangeLineColor "\"blue\""
par ZrpTestNetwork.visualizer.canvasVisualizer.mediumVisualizer[0] communicationRangeLineStyle "\"solid\""
par ZrpTestNetwork.visualizer.canvasVisualizer.mediumVisualizer[0] communicationRangeLineWidth 1
par ZrpTestNetwork.visualizer.canvasVisualizer.mediumVisualizer[0] displayInterferenceRanges false
par ZrpTestNetwork.visualizer.canvasVisualizer.mediumVisualizer[0] interferenceRangeLineColor "\"gray\""
par ZrpTestNetwork.visualizer.canvasVisualizer.mediumVisualizer[0] interferenceRangeLineStyle "\"solid\""
par ZrpTestNetwork.visualizer.canvasVisualizer.mediumVisualizer[0] interferenceRangeLineWidth 1
par ZrpTestNetwork.visualizer.canvasVisualizer.mediumVisualizer[0] autoPowerAxis true
par ZrpTestNetwork.visualizer.canvasVisualizer.mediumVisualizer[0] signalMinPower "inf dBmW"
attr unit dBmW
par ZrpTestNetwork.visualizer.canvasVisualizer.mediumVisualizer[0] signalMaxPower 0dBmW
attr unit dBmW
par ZrpTestNetwork.visualizer.canvasVisualizer.mediumVisualizer[0] signalMinPowerDensity "inf dBmWpMHz"
attr unit dBmWpMHz
par ZrpTestNetwork.visualizer.canvasVisualizer.mediumVisualizer[0] signalMaxPowerDensity "-inf dBmWpMHz"
attr unit dBmWpMHz
par ZrpTestNetwork.visualizer.canvasVisualizer.mediumVisualizer[0] autoTimeAxis true
par ZrpTestNetwork.visualizer.canvasVisualizer.mediumVisualizer[0] signalMinTime 0s
attr unit s
par ZrpTestNetwork.visualizer.canvasVisualizer.mediumVisualizer[0] signalMaxTime 0s
attr unit s
par ZrpTestNetwork.visualizer.canvasVisualizer.mediumVisualizer[0] autoFrequencyAxis true
par ZrpTestNetwork.visualizer.canvasVisualizer.mediumVisualizer[0] signalMinFrequency "inf Hz"
attr unit Hz
par ZrpTestNetwork.visualizer.canvasVisualizer.mediumVisualizer[0] signalMaxFrequency "-inf Hz"
attr unit Hz
par ZrpTestNetwork.visualizer.canvasVisualizer.mediumVisualizer[0] displayMainPowerDensityMap false
par ZrpTestNetwork.visualizer.canvasVisualizer.mediumVisualizer[0] mainPowerDensityMapPixmapDensity 1
par ZrpTestNetwork.visualizer.canvasVisualizer.mediumVisualizer[0] mainPowerDensityMapMinX 0
par ZrpTestNetwork.visualizer.canvasVisualizer.mediumVisualizer[0] mainPowerDensityMapMaxX "nan "
par ZrpTestNetwork.visualizer.canvasVisualizer.mediumVisualizer[0] mainPowerDensityMapMinY 0
par ZrpTestNetwork.visualizer.canvasVisualizer.mediumVisualizer[0] mainPowerDensityMapMaxY "nan "
par ZrpTestNetwork.visualizer.canvasVisualizer.mediumVisualizer[0] mainPowerDensityMapZ 0
par ZrpTestNetwork.visualizer.canvasVisualizer.mediumVisualizer[0] mainPowerDensityMapFigureXTickCount 3
par ZrpTestNetwork.visualizer.canvasVisualizer.mediumVisualizer[0] mainPowerDensityMapFigureYTickCount 3
par ZrpTestNetwork.visualizer.canvasVisualizer.mediumVisualizer[0] displayPowerDensityMaps false
par ZrpTestNetwork.visualizer.canvasVisualizer.mediumVisualizer[0] powerDensityMapMode "\"auto\""
attr enum total,signal,auto
par ZrpTestNetwork.visualizer.canvasVisualizer.mediumVisualizer[0] powerDensityMapPixelMode "\"mean\""
attr enum sample,partition,mean
par ZrpTestNetwork.visualizer.canvasVisualizer.mediumVisualizer[0] powerDensityMapApproximationSize 10
par ZrpTestNetwork.visualizer.canvasVisualizer.mediumVisualizer[0] powerDensityMapCenterFrequency "nan Hz"
attr mutable ""
attr unit Hz
par ZrpTestNetwork.visualizer.canvasVisualizer.mediumVisualizer[0] powerDensityMapBandwidth 0Hz
attr mutable ""
attr unit Hz
par ZrpTestNetwork.visualizer.canvasVisualizer.mediumVisualizer[0] powerDensityMapFigureWidth 200
par ZrpTestNetwork.visualizer.canvasVisualizer.mediumVisualizer[0] powerDensityMapFigureHeight 120
par ZrpTestNetwork.visualizer.canvasVisualizer.mediumVisualizer[0] powerDensityMapPixmapWidth 200
par ZrpTestNetwork.visualizer.canvasVisualizer.mediumVisualizer[0] powerDensityMapPixmapHeight 120
par ZrpTestNetwork.visualizer.canvasVisualizer.mediumVisualizer[0] powerDensityMapZ 0
par ZrpTestNetwork.visualizer.canvasVisualizer.mediumVisualizer[0] powerDensityMapFigureXTickCount 3
par ZrpTestNetwork.visualizer.canvasVisualizer.mediumVisualizer[0] powerDensityMapFigureYTickCount 3
par ZrpTestNetwork.visualizer.canvasVisualizer.mediumVisualizer[0] displaySpectrums false
par ZrpTestNetwork.visualizer.canvasVisualizer.mediumVisualizer[0] spectrumMode "\"auto\""
attr enum total,signal,auto
par ZrpTestNetwork.visualizer.canvasVisualizer.mediumVisualizer[0] spectrumFigureWidth 200
par ZrpTestNetwork.visualizer.canvasVisualizer.mediumVisualizer[0] spectrumFigureHeight 120
par ZrpTestNetwork.visualizer.canvasVisualizer.mediumVisualizer[0] spectrumFigureXTickCount 3
par ZrpTestNetwork.visualizer.canvasVisualizer.mediumVisualizer[0] spectrumFigureYTickCount 5
par ZrpTestNetwork.visualizer.canvasVisualizer.mediumVisualizer[0] spectrumFigureInterpolationSize 5
par ZrpTestNetwork.visualizer.canvasVisualizer.mediumVisualizer[0] spectrumPlacementHint "\"bottomCenter\""
par ZrpTestNetwork.visualizer.canvasVisualizer.mediumVisualizer[0] spectrumPlacementPriority -1
par ZrpTestNetwork.visualizer.canvasVisualizer.mediumVisualizer[0] displaySpectrograms false
par ZrpTestNetwork.visualizer.canvasVisualizer.mediumVisualizer[0] spectrogramMode "\"auto\""
attr enum total,signal,auto
par ZrpTestNetwork.visualizer.canvasVisualizer.mediumVisualizer[0] spectrogramPixelMode "\"mean\""
attr enum sample,partition,mean
par ZrpTestNetwork.visualizer.canvasVisualizer.mediumVisualizer[0] spectrogramFigureWidth 200
par ZrpTestNetwork.visualizer.canvasVisualizer.mediumVisualizer[0] spectrogramFigureHeight 120
par ZrpTestNetwork.visualizer.canvasVisualizer.mediumVisualizer[0] spectrogramPixmapWidth 200
par ZrpTestNetwork.visualizer.canvasVisualizer.mediumVisualizer[0] spectrogramPixmapHeight 120
par ZrpTestNetwork.visualizer.canvasVisualizer.mediumVisualizer[0] spectrogramFigureXTickCount 3
par ZrpTestNetwork.visualizer.canvasVisualizer.mediumVisualizer[0] spectrogramFigureYTickCount 5
par ZrpTestNetwork.visualizer.canvasVisualizer.mediumVisualizer[0] spectrogramPlacementHint "\"bottomCenter\""
par ZrpTestNetwork.visualizer.canvasVisualizer.mediumVisualizer[0] spectrogramPlacementPriority -1
par ZrpTestNetwork.visualizer.canvasVisualizer.mediumVisualizer[0] zIndex 0
par ZrpTestNetwork.visualizer.canvasVisualizer.mediumVisualizer[0] signalShape "\"ring\""
attr enum ring,sphere
par ZrpTestNetwork.visualizer.canvasVisualizer.mediumVisualizer[0] signalOpacity 0.5
par ZrpTestNetwork.visualizer.canvasVisualizer.mediumVisualizer[0] signalRingCount 20
par ZrpTestNetwork.visualizer.canvasVisualizer.mediumVisualizer[0] signalRingSize 50m
attr unit m
par ZrpTestNetwork.visualizer.canvasVisualizer.mediumVisualizer[0] signalFadingDistance 50m
attr unit m
par ZrpTestNetwork.visualizer.canvasVisualizer.mediumVisualizer[0] signalFadingFactor 1.2
par ZrpTestNetwork.visualizer.canvasVisualizer.mediumVisualizer[0] signalWaveCount 20
par ZrpTestNetwork.visualizer.canvasVisualizer.mediumVisualizer[0] signalWaveLength 50m
attr unit m
par ZrpTestNetwork.visualizer.canvasVisualizer.mediumVisualizer[0] signalWaveWidth 10m
attr unit m
par ZrpTestNetwork.visualizer.canvasVisualizer.mediumVisualizer[0] signalWaveFadingAnimationSpeedFactor 1
par ZrpTestNetwork.visualizer.canvasVisualizer.mediumVisualizer[0] displayCommunicationHeat false
par ZrpTestNetwork.visualizer.canvasVisualizer.obstacleLossVisualizer[0] typename "\"inet.visualizer.canvas.physicallayer.TracingObstacleLossCanvasVisualizer\""
par ZrpTestNetwork.visualizer.canvasVisualizer.obstacleLossVisualizer[0] visualizationTargetModule "\"^.^.^\""
par ZrpTestNetwork.visualizer.canvasVisualizer.obstacleLossVisualizer[0] visualizationSubjectModule "\"^.^.^\""
par ZrpTestNetwork.visualizer.canvasVisualizer.obstacleLossVisualizer[0] tags "\"\""
par ZrpTestNetwork.visualizer.canvasVisualizer.obstacleLossVisualizer[0] displayIntersections false
par ZrpTestNetwork.visualizer.canvasVisualizer.obstacleLossVisualizer[0] intersectionLineColor "\"red\""
par ZrpTestNetwork.visualizer.canvasVisualizer.obstacleLossVisualizer[0] intersectionLineStyle "\"solid\""
par ZrpTestNetwork.visualizer.canvasVisualizer.obstacleLossVisualizer[0] intersectionLineWidth 1
par ZrpTestNetwork.visualizer.canvasVisualizer.obstacleLossVisualizer[0] displayFaceNormalVectors false
par ZrpTestNetwork.visualizer.canvasVisualizer.obstacleLossVisualizer[0] faceNormalLineColor "\"grey\""
par ZrpTestNetwork.visualizer.canvasVisualizer.obstacleLossVisualizer[0] faceNormalLineStyle "\"solid\""
par ZrpTestNetwork.visualizer.canvasVisualizer.obstacleLossVisualizer[0] faceNormalLineWidth 1
par ZrpTestNetwork.visualizer.canvasVisualizer.obstacleLossVisualizer[0] fadeOutMode "\"realTime\""
attr enum realTime,animationTime,simulationTime
par ZrpTestNetwork.visualizer.canvasVisualizer.obstacleLossVisualizer[0] fadeOutTime 1s
attr unit s
par ZrpTestNetwork.visualizer.canvasVisualizer.obstacleLossVisualizer[0] fadeOutAnimationSpeed 0
par ZrpTestNetwork.visualizer.canvasVisualizer.obstacleLossVisualizer[0] zIndex 0
par ZrpTestNetwork.visualizer.canvasVisualizer.packetDropVisualizer[0] typename "\"inet.visualizer.canvas.common.PacketDropCanvasVisualizer\""
par ZrpTestNetwork.visualizer.canvasVisualizer.packetDropVisualizer[0] visualizationTargetModule "\"^.^.^\""
par ZrpTestNetwork.visualizer.canvasVisualizer.packetDropVisualizer[0] visualizationSubjectModule "\"^.^.^\""
par ZrpTestNetwork.visualizer.canvasVisualizer.packetDropVisualizer[0] tags "\"\""
par ZrpTestNetwork.visualizer.canvasVisualizer.packetDropVisualizer[0] displayPacketDrops false
par ZrpTestNetwork.visualizer.canvasVisualizer.packetDropVisualizer[0] nodeFilter "\"*\""
attr mutable ""
par ZrpTestNetwork.visualizer.canvasVisualizer.packetDropVisualizer[0] interfaceFilter "\"*\""
attr mutable ""
par ZrpTestNetwork.visualizer.canvasVisualizer.packetDropVisualizer[0] packetFilter "(omnetpp::cValueHolder)holder: \"*\""
attr mutable ""
par ZrpTestNetwork.visualizer.canvasVisualizer.packetDropVisualizer[0] detailsFilter "\"*\""
attr mutable ""
par ZrpTestNetwork.visualizer.canvasVisualizer.packetDropVisualizer[0] icon "\"msg/packet_s\""
par ZrpTestNetwork.visualizer.canvasVisualizer.packetDropVisualizer[0] iconTintAmount 1
par ZrpTestNetwork.visualizer.canvasVisualizer.packetDropVisualizer[0] iconTintColor "\"dark\""
par ZrpTestNetwork.visualizer.canvasVisualizer.packetDropVisualizer[0] labelFormat "\"%n\""
attr mutable ""
par ZrpTestNetwork.visualizer.canvasVisualizer.packetDropVisualizer[0] labelFont "\"<default>\""
par ZrpTestNetwork.visualizer.canvasVisualizer.packetDropVisualizer[0] labelColor "\"black\""
par ZrpTestNetwork.visualizer.canvasVisualizer.packetDropVisualizer[0] fadeOutMode "\"realTime\""
attr enum realTime,animationTime,simulationTime
par ZrpTestNetwork.visualizer.canvasVisualizer.packetDropVisualizer[0] fadeOutTime 1s
attr unit s
par ZrpTestNetwork.visualizer.canvasVisualizer.packetDropVisualizer[0] fadeOutAnimationSpeed 0
par ZrpTestNetwork.visualizer.canvasVisualizer.packetDropVisualizer[0] zIndex 10
par ZrpTestNetwork.visualizer.canvasVisualizer.packetDropVisualizer[0] dx 32
par ZrpTestNetwork.visualizer.canvasVisualizer.packetDropVisualizer[0] dy 64
par ZrpTestNetwork.visualizer.canvasVisualizer.queueVisualizer[0] typename "\"inet.visualizer.canvas.common.QueueCanvasVisualizer\""
par ZrpTestNetwork.visualizer.canvasVisualizer.queueVisualizer[0] visualizationTargetModule "\"^.^.^\""
par ZrpTestNetwork.visualizer.canvasVisualizer.queueVisualizer[0] visualizationSubjectModule "\"^.^.^\""
par ZrpTestNetwork.visualizer.canvasVisualizer.queueVisualizer[0] tags "\"\""
par ZrpTestNetwork.visualizer.canvasVisualizer.queueVisualizer[0] networkNodeVisualizerModule "\"ZrpTestNetwork.visualizer.canvasVisualizer.networkNodeVisualizer[0]\""
par ZrpTestNetwork.visualizer.canvasVisualizer.queueVisualizer[0] displayQueues false
par ZrpTestNetwork.visualizer.canvasVisualizer.queueVisualizer[0] queueFilter "\"**\""
par ZrpTestNetwork.visualizer.canvasVisualizer.queueVisualizer[0] color "\"blue\""
par ZrpTestNetwork.visualizer.canvasVisualizer.queueVisualizer[0] width 8
par ZrpTestNetwork.visualizer.canvasVisualizer.queueVisualizer[0] height 24
par ZrpTestNetwork.visualizer.canvasVisualizer.queueVisualizer[0] spacing 2
par ZrpTestNetwork.visualizer.canvasVisualizer.queueVisualizer[0] placementHint "\"right\""
par ZrpTestNetwork.visualizer.canvasVisualizer.queueVisualizer[0] placementPriority 0
par ZrpTestNetwork.visualizer.canvasVisualizer.queueVisualizer[0] zIndex 10
par ZrpTestNetwork.visualizer.canvasVisualizer.gateScheduleVisualizer[0] typename "\"inet.visualizer.canvas.common.GateScheduleCanvasVisualizer\""
par ZrpTestNetwork.visualizer.canvasVisualizer.gateScheduleVisualizer[0] visualizationTargetModule "\"^.^.^\""
par ZrpTestNetwork.visualizer.canvasVisualizer.gateScheduleVisualizer[0] visualizationSubjectModule "\"^.^.^\""
par ZrpTestNetwork.visualizer.canvasVisualizer.gateScheduleVisualizer[0] tags "\"\""
par ZrpTestNetwork.visualizer.canvasVisualizer.gateScheduleVisualizer[0] networkNodeVisualizerModule "\"ZrpTestNetwork.visualizer.canvasVisualizer.networkNodeVisualizer[0]\""
par ZrpTestNetwork.visualizer.canvasVisualizer.gateScheduleVisualizer[0] displayGateSchedules false
par ZrpTestNetwork.visualizer.canvasVisualizer.gateScheduleVisualizer[0] labelFormat "\"%i %D\""
par ZrpTestNetwork.visualizer.canvasVisualizer.gateScheduleVisualizer[0] gateFilter "\"**\""
par ZrpTestNetwork.visualizer.canvasVisualizer.gateScheduleVisualizer[0] width 100
par ZrpTestNetwork.visualizer.canvasVisualizer.gateScheduleVisualizer[0] height 8
par ZrpTestNetwork.visualizer.canvasVisualizer.gateScheduleVisualizer[0] spacing 2
par ZrpTestNetwork.visualizer.canvasVisualizer.gateScheduleVisualizer[0] placementHint "\"right\""
par ZrpTestNetwork.visualizer.canvasVisualizer.gateScheduleVisualizer[0] placementPriority 0
par ZrpTestNetwork.visualizer.canvasVisualizer.gateScheduleVisualizer[0] displayDuration 0s
attr mutable ""
attr unit s
par ZrpTestNetwork.visualizer.canvasVisualizer.gateScheduleVisualizer[0] currentTimePosition 50
par ZrpTestNetwork.visualizer.canvasVisualizer.gateScheduleVisualizer[0] zIndex 10
par ZrpTestNetwork.visualizer.canvasVisualizer.radioVisualizer[0] typename "\"inet.visualizer.canvas.physicallayer.RadioCanvasVisualizer\""
par ZrpTestNetwork.visualizer.canvasVisualizer.radioVisualizer[0] visualizationTargetModule "\"^.^.^\""
par ZrpTestNetwork.visualizer.canvasVisualizer.radioVisualizer[0] visualizationSubjectModule "\"^.^.^\""
par ZrpTestNetwork.visualizer.canvasVisualizer.radioVisualizer[0] tags "\"\""
par ZrpTestNetwork.visualizer.canvasVisualizer.radioVisualizer[0] networkNodeVisualizerModule "\"ZrpTestNetwork.visualizer.canvasVisualizer.networkNodeVisualizer[0]\""
par ZrpTestNetwork.visualizer.canvasVisualizer.radioVisualizer[0] displayRadios false
par ZrpTestNetwork.visualizer.canvasVisualizer.radioVisualizer[0] displayRadioMode true
par ZrpTestNetwork.visualizer.canvasVisualizer.radioVisualizer[0] displayReceptionState true
par ZrpTestNetwork.visualizer.canvasVisualizer.radioVisualizer[0] displayTransmissionState true
par ZrpTestNetwork.visualizer.canvasVisualizer.radioVisualizer[0] displayAntennaLobes false
par ZrpTestNetwork.visualizer.canvasVisualizer.radioVisualizer[0] radioFilter "\"**\""
attr mutable ""
par ZrpTestNetwork.visualizer.canvasVisualizer.radioVisualizer[0] radioModeImages "\"block/process_vs block/timer_vs block/wrx_vs block/wtx_vs block/wrxtx_vs block/cogwheel_vs\""
par ZrpTestNetwork.visualizer.canvasVisualizer.radioVisualizer[0] receptionStateImages "\"- - misc/receiving misc/receiving\""
par ZrpTestNetwork.visualizer.canvasVisualizer.radioVisualizer[0] transmissionStateImages "\"- - misc/transmitting\""
par ZrpTestNetwork.visualizer.canvasVisualizer.radioVisualizer[0] width 16
par ZrpTestNetwork.visualizer.canvasVisualizer.radioVisualizer[0] height 16
par ZrpTestNetwork.visualizer.canvasVisualizer.radioVisualizer[0] placementHint "\"bottomRight\""
par ZrpTestNetwork.visualizer.canvasVisualizer.radioVisualizer[0] placementPriority 0
par ZrpTestNetwork.visualizer.canvasVisualizer.radioVisualizer[0] antennaLobeNormalize false
par ZrpTestNetwork.visualizer.canvasVisualizer.radioVisualizer[0] antennaLobeRelativeLabels false
par ZrpTestNetwork.visualizer.canvasVisualizer.radioVisualizer[0] antennaLobePlaneGlobal true
par ZrpTestNetwork.visualizer.canvasVisualizer.radioVisualizer[0] antennaLobePlane "\"view\""
attr enum view,xy,xz,yz
par ZrpTestNetwork.visualizer.canvasVisualizer.radioVisualizer[0] antennaLobeMode "\"logarithmic\""
attr enum logarithmic,linear
par ZrpTestNetwork.visualizer.canvasVisualizer.radioVisualizer[0] antennaLobeLogarithmicBase 10
par ZrpTestNetwork.visualizer.canvasVisualizer.radioVisualizer[0] antennaLobeLogarithmicScale 100
par ZrpTestNetwork.visualizer.canvasVisualizer.radioVisualizer[0] antennaLobeRadius 100
par ZrpTestNetwork.visualizer.canvasVisualizer.radioVisualizer[0] antennaLobeStep 10deg
attr unit deg
par ZrpTestNetwork.visualizer.canvasVisualizer.radioVisualizer[0] antennaLobeOpacity 0.25
par ZrpTestNetwork.visualizer.canvasVisualizer.radioVisualizer[0] antennaLobeLineSmooth true
par ZrpTestNetwork.visualizer.canvasVisualizer.radioVisualizer[0] antennaLobeLineColor "\"black\""
par ZrpTestNetwork.visualizer.canvasVisualizer.radioVisualizer[0] antennaLobeLineStyle "\"solid\""
par ZrpTestNetwork.visualizer.canvasVisualizer.radioVisualizer[0] antennaLobeLineWidth 1
par ZrpTestNetwork.visualizer.canvasVisualizer.radioVisualizer[0] antennaLobeFillColor "\"white\""
par ZrpTestNetwork.visualizer.canvasVisualizer.radioVisualizer[0] zIndex 10
par ZrpTestNetwork.visualizer.canvasVisualizer.physicalLinkVisualizer[0] typename "\"inet.visualizer.canvas.physicallayer.PhysicalLinkCanvasVisualizer\""
par ZrpTestNetwork.visualizer.canvasVisualizer.physicalLinkVisualizer[0] visualizationTargetModule "\"^.^.^\""
par ZrpTestNetwork.visualizer.canvasVisualizer.physicalLinkVisualizer[0] visualizationSubjectModule "\"^.^.^\""
par ZrpTestNetwork.visualizer.canvasVisualizer.physicalLinkVisualizer[0] tags "\"\""
par ZrpTestNetwork.visualizer.canvasVisualizer.physicalLinkVisualizer[0] displayLinks false
par ZrpTestNetwork.visualizer.canvasVisualizer.physicalLinkVisualizer[0] activityLevel "\"service\""
attr enum service,peer,protocol
par ZrpTestNetwork.visualizer.canvasVisualizer.physicalLinkVisualizer[0] nodeFilter "\"*\""
attr mutable ""
par ZrpTestNetwork.visualizer.canvasVisualizer.physicalLinkVisualizer[0] interfaceFilter "\"*\""
attr mutable ""
par ZrpTestNetwork.visualizer.canvasVisualizer.physicalLinkVisualizer[0] packetFilter "(omnetpp::cValueHolder)holder: \"*\""
attr mutable ""
par ZrpTestNetwork.visualizer.canvasVisualizer.physicalLinkVisualizer[0] lineColor "\"olive\""
par ZrpTestNetwork.visualizer.canvasVisualizer.physicalLinkVisualizer[0] lineStyle "\"dotted\""
par ZrpTestNetwork.visualizer.canvasVisualizer.physicalLinkVisualizer[0] lineWidth 3
par ZrpTestNetwork.visualizer.canvasVisualizer.physicalLinkVisualizer[0] lineShift 16
par ZrpTestNetwork.visualizer.canvasVisualizer.physicalLinkVisualizer[0] lineShiftMode "\"normal\""
par ZrpTestNetwork.visualizer.canvasVisualizer.physicalLinkVisualizer[0] lineContactSpacing 3
par ZrpTestNetwork.visualizer.canvasVisualizer.physicalLinkVisualizer[0] lineContactMode "\"rectangular\""
attr enum circular,rectangular
par ZrpTestNetwork.visualizer.canvasVisualizer.physicalLinkVisualizer[0] labelFormat "\"%n\""
par ZrpTestNetwork.visualizer.canvasVisualizer.physicalLinkVisualizer[0] labelFont "\"<default>, 8px\""
par ZrpTestNetwork.visualizer.canvasVisualizer.physicalLinkVisualizer[0] labelColor "\"olive\""
par ZrpTestNetwork.visualizer.canvasVisualizer.physicalLinkVisualizer[0] fadeOutMode "\"realTime\""
attr enum realTime,animationTime,simulationTime
par ZrpTestNetwork.visualizer.canvasVisualizer.physicalLinkVisualizer[0] fadeOutTime 1s
attr unit s
par ZrpTestNetwork.visualizer.canvasVisualizer.physicalLinkVisualizer[0] fadeOutAnimationSpeed 0
par ZrpTestNetwork.visualizer.canvasVisualizer.physicalLinkVisualizer[0] holdAnimationTime 0s
attr unit s
par ZrpTestNetwork.visualizer.canvasVisualizer.physicalLinkVisualizer[0] zIndex 1
par ZrpTestNetwork.visualizer.canvasVisualizer.interfaceTableVisualizer[0] typename "\"inet.visualizer.canvas.linklayer.InterfaceTableCanvasVisualizer\""
par ZrpTestNetwork.visualizer.canvasVisualizer.interfaceTableVisualizer[0] visualizationTargetModule "\"^.^.^\""
par ZrpTestNetwork.visualizer.canvasVisualizer.interfaceTableVisualizer[0] visualizationSubjectModule "\"^.^.^\""
par ZrpTestNetwork.visualizer.canvasVisualizer.interfaceTableVisualizer[0] tags "\"\""
par ZrpTestNetwork.visualizer.canvasVisualizer.interfaceTableVisualizer[0] networkNodeVisualizerModule "\"ZrpTestNetwork.visualizer.canvasVisualizer.networkNodeVisualizer[0]\""
par ZrpTestNetwork.visualizer.canvasVisualizer.interfaceTableVisualizer[0] displayInterfaceTables true
par ZrpTestNetwork.visualizer.canvasVisualizer.interfaceTableVisualizer[0] displayWiredInterfacesAtConnections true
par ZrpTestNetwork.visualizer.canvasVisualizer.interfaceTableVisualizer[0] displayBackground false
par ZrpTestNetwork.visualizer.canvasVisualizer.interfaceTableVisualizer[0] nodeFilter "\"*\""
attr mutable ""
par ZrpTestNetwork.visualizer.canvasVisualizer.interfaceTableVisualizer[0] interfaceFilter "\"not(lo*)\""
attr mutable ""
par ZrpTestNetwork.visualizer.canvasVisualizer.interfaceTableVisualizer[0] format "\"%a/%l\""
attr mutable ""
par ZrpTestNetwork.visualizer.canvasVisualizer.interfaceTableVisualizer[0] placementHint "\"top\""
par ZrpTestNetwork.visualizer.canvasVisualizer.interfaceTableVisualizer[0] placementPriority 0
par ZrpTestNetwork.visualizer.canvasVisualizer.interfaceTableVisualizer[0] font "\"<default>\""
par ZrpTestNetwork.visualizer.canvasVisualizer.interfaceTableVisualizer[0] textColor "\"#005030\""
par ZrpTestNetwork.visualizer.canvasVisualizer.interfaceTableVisualizer[0] backgroundColor "\"white\""
par ZrpTestNetwork.visualizer.canvasVisualizer.interfaceTableVisualizer[0] opacity 1
par ZrpTestNetwork.visualizer.canvasVisualizer.interfaceTableVisualizer[0] zIndex 10
par ZrpTestNetwork.visualizer.canvasVisualizer.dataLinkVisualizer[0] typename "\"inet.visualizer.canvas.linklayer.DataLinkCanvasVisualizer\""
par ZrpTestNetwork.visualizer.canvasVisualizer.dataLinkVisualizer[0] visualizationTargetModule "\"^.^.^\""
par ZrpTestNetwork.visualizer.canvasVisualizer.dataLinkVisualizer[0] visualizationSubjectModule "\"^.^.^\""
par ZrpTestNetwork.visualizer.canvasVisualizer.dataLinkVisualizer[0] tags "\"\""
par ZrpTestNetwork.visualizer.canvasVisualizer.dataLinkVisualizer[0] displayLinks true
par ZrpTestNetwork.visualizer.canvasVisualizer.dataLinkVisualizer[0] activityLevel "\"peer\""
attr enum service,peer,protocol
par ZrpTestNetwork.visualizer.canvasVisualizer.dataLinkVisualizer[0] nodeFilter "\"*\""
attr mutable ""
par ZrpTestNetwork.visualizer.canvasVisualizer.dataLinkVisualizer[0] interfaceFilter "\"*\""
attr mutable ""
par ZrpTestNetwork.visualizer.canvasVisualizer.dataLinkVisualizer[0] packetFilter "(omnetpp::cValueHolder)holder: \"NDP_Hello\""
attr mutable ""
par ZrpTestNetwork.visualizer.canvasVisualizer.dataLinkVisualizer[0] lineColor "\"green\""
par ZrpTestNetwork.visualizer.canvasVisualizer.dataLinkVisualizer[0] lineStyle "\"solid\""
par ZrpTestNetwork.visualizer.canvasVisualizer.dataLinkVisualizer[0] lineWidth 3
par ZrpTestNetwork.visualizer.canvasVisualizer.dataLinkVisualizer[0] lineShift 16
par ZrpTestNetwork.visualizer.canvasVisualizer.dataLinkVisualizer[0] lineShiftMode "\"normal\""
par ZrpTestNetwork.visualizer.canvasVisualizer.dataLinkVisualizer[0] lineContactSpacing 3
par ZrpTestNetwork.visualizer.canvasVisualizer.dataLinkVisualizer[0] lineContactMode "\"rectangular\""
attr enum circular,rectangular
par ZrpTestNetwork.visualizer.canvasVisualizer.dataLinkVisualizer[0] labelFormat "\"%n\""
par ZrpTestNetwork.visualizer.canvasVisualizer.dataLinkVisualizer[0] labelFont "\"<default>, 8px\""
par ZrpTestNetwork.visualizer.canvasVisualizer.dataLinkVisualizer[0] labelColor "\"green\""
par ZrpTestNetwork.visualizer.canvasVisualizer.dataLinkVisualizer[0] fadeOutMode "\"realTime\""
attr enum realTime,animationTime,simulationTime
par ZrpTestNetwork.visualizer.canvasVisualizer.dataLinkVisualizer[0] fadeOutTime 1s
attr unit s
par ZrpTestNetwork.visualizer.canvasVisualizer.dataLinkVisualizer[0] fadeOutAnimationSpeed 0
par ZrpTestNetwork.visualizer.canvasVisualizer.dataLinkVisualizer[0] holdAnimationTime 0s
attr unit s
par ZrpTestNetwork.visualizer.canvasVisualizer.dataLinkVisualizer[0] zIndex 2
par ZrpTestNetwork.visualizer.canvasVisualizer.dataLinkVisualizer[1] typename "\"inet.visualizer.canvas.linklayer.DataLinkCanvasVisualizer\""
par ZrpTestNetwork.visualizer.canvasVisualizer.dataLinkVisualizer[1] visualizationTargetModule "\"^.^.^\""
par ZrpTestNetwork.visualizer.canvasVisualizer.dataLinkVisualizer[1] visualizationSubjectModule "\"^.^.^\""
par ZrpTestNetwork.visualizer.canvasVisualizer.dataLinkVisualizer[1] tags "\"\""
par ZrpTestNetwork.visualizer.canvasVisualizer.dataLinkVisualizer[1] displayLinks true
par ZrpTestNetwork.visualizer.canvasVisualizer.dataLinkVisualizer[1] activityLevel "\"peer\""
attr enum service,peer,protocol
par ZrpTestNetwork.visualizer.canvasVisualizer.dataLinkVisualizer[1] nodeFilter "\"*\""
attr mutable ""
par ZrpTestNetwork.visualizer.canvasVisualizer.dataLinkVisualizer[1] interfaceFilter "\"*\""
attr mutable ""
par ZrpTestNetwork.visualizer.canvasVisualizer.dataLinkVisualizer[1] packetFilter "(omnetpp::cValueHolder)holder: \"IARP_LinkStateUpdate\""
attr mutable ""
par ZrpTestNetwork.visualizer.canvasVisualizer.dataLinkVisualizer[1] lineColor "\"orange\""
par ZrpTestNetwork.visualizer.canvasVisualizer.dataLinkVisualizer[1] lineStyle "\"solid\""
par ZrpTestNetwork.visualizer.canvasVisualizer.dataLinkVisualizer[1] lineWidth 3
par ZrpTestNetwork.visualizer.canvasVisualizer.dataLinkVisualizer[1] lineShift 16
par ZrpTestNetwork.visualizer.canvasVisualizer.dataLinkVisualizer[1] lineShiftMode "\"normal\""
par ZrpTestNetwork.visualizer.canvasVisualizer.dataLinkVisualizer[1] lineContactSpacing 3
par ZrpTestNetwork.visualizer.canvasVisualizer.dataLinkVisualizer[1] lineContactMode "\"rectangular\""
attr enum circular,rectangular
par ZrpTestNetwork.visualizer.canvasVisualizer.dataLinkVisualizer[1] labelFormat "\"%n\""
par ZrpTestNetwork.visualizer.canvasVisualizer.dataLinkVisualizer[1] labelFont "\"<default>, 8px\""
par ZrpTestNetwork.visualizer.canvasVisualizer.dataLinkVisualizer[1] labelColor "\"orange\""
par ZrpTestNetwork.visualizer.canvasVisualizer.dataLinkVisualizer[1] fadeOutMode "\"realTime\""
attr enum realTime,animationTime,simulationTime
par ZrpTestNetwork.visualizer.canvasVisualizer.dataLinkVisualizer[1] fadeOutTime 1s
attr unit s
par ZrpTestNetwork.visualizer.canvasVisualizer.dataLinkVisualizer[1] fadeOutAnimationSpeed 0
par ZrpTestNetwork.visualizer.canvasVisualizer.dataLinkVisualizer[1] holdAnimationTime 0s
attr unit s
par ZrpTestNetwork.visualizer.canvasVisualizer.dataLinkVisualizer[1] zIndex 2
par ZrpTestNetwork.visualizer.canvasVisualizer.dataLinkVisualizer[2] typename "\"inet.visualizer.canvas.linklayer.DataLinkCanvasVisualizer\""
par ZrpTestNetwork.visualizer.canvasVisualizer.dataLinkVisualizer[2] visualizationTargetModule "\"^.^.^\""
par ZrpTestNetwork.visualizer.canvasVisualizer.dataLinkVisualizer[2] visualizationSubjectModule "\"^.^.^\""
par ZrpTestNetwork.visualizer.canvasVisualizer.dataLinkVisualizer[2] tags "\"\""
par ZrpTestNetwork.visualizer.canvasVisualizer.dataLinkVisualizer[2] displayLinks true
par ZrpTestNetwork.visualizer.canvasVisualizer.dataLinkVisualizer[2] activityLevel "\"peer\""
attr enum service,peer,protocol
par ZrpTestNetwork.visualizer.canvasVisualizer.dataLinkVisualizer[2] nodeFilter "\"*\""
attr mutable ""
par ZrpTestNetwork.visualizer.canvasVisualizer.dataLinkVisualizer[2] interfaceFilter "\"*\""
attr mutable ""
par ZrpTestNetwork.visualizer.canvasVisualizer.dataLinkVisualizer[2] packetFilter "(omnetpp::cValueHolder)holder: \"ping*\""
attr mutable ""
par ZrpTestNetwork.visualizer.canvasVisualizer.dataLinkVisualizer[2] lineColor "\"blue\""
par ZrpTestNetwork.visualizer.canvasVisualizer.dataLinkVisualizer[2] lineStyle "\"solid\""
par ZrpTestNetwork.visualizer.canvasVisualizer.dataLinkVisualizer[2] lineWidth 3
par ZrpTestNetwork.visualizer.canvasVisualizer.dataLinkVisualizer[2] lineShift 16
par ZrpTestNetwork.visualizer.canvasVisualizer.dataLinkVisualizer[2] lineShiftMode "\"normal\""
par ZrpTestNetwork.visualizer.canvasVisualizer.dataLinkVisualizer[2] lineContactSpacing 3
par ZrpTestNetwork.visualizer.canvasVisualizer.dataLinkVisualizer[2] lineContactMode "\"rectangular\""
attr enum circular,rectangular
par ZrpTestNetwork.visualizer.canvasVisualizer.dataLinkVisualizer[2] labelFormat "\"%n\""
par ZrpTestNetwork.visualizer.canvasVisualizer.dataLinkVisualizer[2] labelFont "\"<default>, 8px\""
par ZrpTestNetwork.visualizer.canvasVisualizer.dataLinkVisualizer[2] labelColor "\"blue\""
par ZrpTestNetwork.visualizer.canvasVisualizer.dataLinkVisualizer[2] fadeOutMode "\"realTime\""
attr enum realTime,animationTime,simulationTime
par ZrpTestNetwork.visualizer.canvasVisualizer.dataLinkVisualizer[2] fadeOutTime 1s
attr unit s
par ZrpTestNetwork.visualizer.canvasVisualizer.dataLinkVisualizer[2] fadeOutAnimationSpeed 0
par ZrpTestNetwork.visualizer.canvasVisualizer.dataLinkVisualizer[2] holdAnimationTime 0s
attr unit s
par ZrpTestNetwork.visualizer.canvasVisualizer.dataLinkVisualizer[2] zIndex 2
par ZrpTestNetwork.visualizer.canvasVisualizer.linkBreakVisualizer[0] typename "\"inet.visualizer.canvas.linklayer.LinkBreakCanvasVisualizer\""
par ZrpTestNetwork.visualizer.canvasVisualizer.linkBreakVisualizer[0] visualizationTargetModule "\"^.^.^\""
par ZrpTestNetwork.visualizer.canvasVisualizer.linkBreakVisualizer[0] visualizationSubjectModule "\"^.^.^\""
par ZrpTestNetwork.visualizer.canvasVisualizer.linkBreakVisualizer[0] tags "\"\""
par ZrpTestNetwork.visualizer.canvasVisualizer.linkBreakVisualizer[0] displayLinkBreaks false
par ZrpTestNetwork.visualizer.canvasVisualizer.linkBreakVisualizer[0] nodeFilter "\"*\""
attr mutable ""
par ZrpTestNetwork.visualizer.canvasVisualizer.linkBreakVisualizer[0] interfaceFilter "\"*\""
attr mutable ""
par ZrpTestNetwork.visualizer.canvasVisualizer.linkBreakVisualizer[0] packetFilter "(omnetpp::cValueHolder)holder: \"*\""
attr mutable ""
par ZrpTestNetwork.visualizer.canvasVisualizer.linkBreakVisualizer[0] icon "\"status/stop\""
par ZrpTestNetwork.visualizer.canvasVisualizer.linkBreakVisualizer[0] iconTintAmount 0
par ZrpTestNetwork.visualizer.canvasVisualizer.linkBreakVisualizer[0] iconTintColor "\"\""
par ZrpTestNetwork.visualizer.canvasVisualizer.linkBreakVisualizer[0] fadeOutMode "\"realTime\""
attr enum realTime,animationTime,simulationTime
par ZrpTestNetwork.visualizer.canvasVisualizer.linkBreakVisualizer[0] fadeOutTime 1s
attr unit s
par ZrpTestNetwork.visualizer.canvasVisualizer.linkBreakVisualizer[0] fadeOutAnimationSpeed 0
par ZrpTestNetwork.visualizer.canvasVisualizer.linkBreakVisualizer[0] zIndex 2
par ZrpTestNetwork.visualizer.canvasVisualizer.ieee80211Visualizer[0] typename "\"inet.visualizer.canvas.linklayer.Ieee80211CanvasVisualizer\""
par ZrpTestNetwork.visualizer.canvasVisualizer.ieee80211Visualizer[0] visualizationTargetModule "\"^.^.^\""
par ZrpTestNetwork.visualizer.canvasVisualizer.ieee80211Visualizer[0] visualizationSubjectModule "\"^.^.^\""
par ZrpTestNetwork.visualizer.canvasVisualizer.ieee80211Visualizer[0] tags "\"\""
par ZrpTestNetwork.visualizer.canvasVisualizer.ieee80211Visualizer[0] networkNodeVisualizerModule "\"ZrpTestNetwork.visualizer.canvasVisualizer.networkNodeVisualizer[0]\""
par ZrpTestNetwork.visualizer.canvasVisualizer.ieee80211Visualizer[0] displayAssociations false
par ZrpTestNetwork.visualizer.canvasVisualizer.ieee80211Visualizer[0] nodeFilter "\"*\""
attr mutable ""
par ZrpTestNetwork.visualizer.canvasVisualizer.ieee80211Visualizer[0] interfaceFilter "\"*\""
attr mutable ""
par ZrpTestNetwork.visualizer.canvasVisualizer.ieee80211Visualizer[0] minPower -85dBm
attr unit dBm
par ZrpTestNetwork.visualizer.canvasVisualizer.ieee80211Visualizer[0] maxPower -50dBm
attr unit dBm
par ZrpTestNetwork.visualizer.canvasVisualizer.ieee80211Visualizer[0] icons "\"misc/signal_power_0 misc/signal_power_1 misc/signal_power_2 misc/signal_power_3\""
par ZrpTestNetwork.visualizer.canvasVisualizer.ieee80211Visualizer[0] iconColor "\"dark\""
par ZrpTestNetwork.visualizer.canvasVisualizer.ieee80211Visualizer[0] labelFont "\"<default>\""
par ZrpTestNetwork.visualizer.canvasVisualizer.ieee80211Visualizer[0] labelColor "\"black\""
par ZrpTestNetwork.visualizer.canvasVisualizer.ieee80211Visualizer[0] placementHint "\"top\""
par ZrpTestNetwork.visualizer.canvasVisualizer.ieee80211Visualizer[0] placementPriority 0
par ZrpTestNetwork.visualizer.canvasVisualizer.ieee80211Visualizer[0] zIndex 2
par ZrpTestNetwork.visualizer.canvasVisualizer.networkRouteVisualizer[0] typename "\"inet.visualizer.canvas.networklayer.NetworkRouteCanvasVisualizer\""
par ZrpTestNetwork.visualizer.canvasVisualizer.networkRouteVisualizer[0] visualizationTargetModule "\"^.^.^\""
par ZrpTestNetwork.visualizer.canvasVisualizer.networkRouteVisualizer[0] visualizationSubjectModule "\"^.^.^\""
par ZrpTestNetwork.visualizer.canvasVisualizer.networkRouteVisualizer[0] tags "\"\""
par ZrpTestNetwork.visualizer.canvasVisualizer.networkRouteVisualizer[0] displayRoutes true
par ZrpTestNetwork.visualizer.canvasVisualizer.networkRouteVisualizer[0] startPathSignal "\"packetReceivedFromUpper\""
par ZrpTestNetwork.visualizer.canvasVisualizer.networkRouteVisualizer[0] extendPathSignal "\"packetReceivedFromLower\""
par ZrpTestNetwork.visualizer.canvasVisualizer.networkRouteVisualizer[0] endPathSignal "\"packetSentToUpper\""
par ZrpTestNetwork.visualizer.canvasVisualizer.networkRouteVisualizer[0] nodeFilter "\"*\""
attr mutable ""
par ZrpTestNetwork.visualizer.canvasVisualizer.networkRouteVisualizer[0] packetFilter "(omnetpp::cValueHolder)holder: \"*ping*\""
attr mutable ""
par ZrpTestNetwork.visualizer.canvasVisualizer.networkRouteVisualizer[0] lineColor "\"dark\""
par ZrpTestNetwork.visualizer.canvasVisualizer.networkRouteVisualizer[0] lineStyle "\"solid\""
par ZrpTestNetwork.visualizer.canvasVisualizer.networkRouteVisualizer[0] lineWidth 3
par ZrpTestNetwork.visualizer.canvasVisualizer.networkRouteVisualizer[0] lineSmooth false
par ZrpTestNetwork.visualizer.canvasVisualizer.networkRouteVisualizer[0] lineShift 16
par ZrpTestNetwork.visualizer.canvasVisualizer.networkRouteVisualizer[0] lineShiftMode "\"normal\""
par ZrpTestNetwork.visualizer.canvasVisualizer.networkRouteVisualizer[0] lineContactSpacing 3
par ZrpTestNetwork.visualizer.canvasVisualizer.networkRouteVisualizer[0] lineContactMode "\"rectangular\""
attr enum circular,rectangular
par ZrpTestNetwork.visualizer.canvasVisualizer.networkRouteVisualizer[0] labelFormat "\"%n\""
par ZrpTestNetwork.visualizer.canvasVisualizer.networkRouteVisualizer[0] labelFont "\"<default>, 8px\""
par ZrpTestNetwork.visualizer.canvasVisualizer.networkRouteVisualizer[0] labelColor "\"\""
par ZrpTestNetwork.visualizer.canvasVisualizer.networkRouteVisualizer[0] fadeOutMode "\"realTime\""
attr enum realTime,animationTime,simulationTime
par ZrpTestNetwork.visualizer.canvasVisualizer.networkRouteVisualizer[0] fadeOutTime 1s
attr unit s
par ZrpTestNetwork.visualizer.canvasVisualizer.networkRouteVisualizer[0] fadeOutAnimationSpeed 0
par ZrpTestNetwork.visualizer.canvasVisualizer.networkRouteVisualizer[0] zIndex 3
par ZrpTestNetwork.visualizer.canvasVisualizer.routingTableVisualizer[0] typename "\"inet.visualizer.canvas.networklayer.RoutingTableCanvasVisualizer\""
par ZrpTestNetwork.visualizer.canvasVisualizer.routingTableVisualizer[0] visualizationTargetModule "\"^.^.^\""
par ZrpTestNetwork.visualizer.canvasVisualizer.routingTableVisualizer[0] visualizationSubjectModule "\"^.^.^\""
par ZrpTestNetwork.visualizer.canvasVisualizer.routingTableVisualizer[0] tags "\"\""
par ZrpTestNetwork.visualizer.canvasVisualizer.routingTableVisualizer[0] displayRoutingTables true
par ZrpTestNetwork.visualizer.canvasVisualizer.routingTableVisualizer[0] displayRoutesIndividually false
par ZrpTestNetwork.visualizer.canvasVisualizer.routingTableVisualizer[0] displayLabels false
par ZrpTestNetwork.visualizer.canvasVisualizer.routingTableVisualizer[0] destinationFilter "\"*\""
attr mutable ""
par ZrpTestNetwork.visualizer.canvasVisualizer.routingTableVisualizer[0] nodeFilter "\"*\""
attr mutable ""
par ZrpTestNetwork.visualizer.canvasVisualizer.routingTableVisualizer[0] lineColor "\"black\""
par ZrpTestNetwork.visualizer.canvasVisualizer.routingTableVisualizer[0] lineStyle "\"solid\""
par ZrpTestNetwork.visualizer.canvasVisualizer.routingTableVisualizer[0] lineWidth 2
par ZrpTestNetwork.visualizer.canvasVisualizer.routingTableVisualizer[0] lineShift 0
par ZrpTestNetwork.visualizer.canvasVisualizer.routingTableVisualizer[0] lineShiftMode "\"normal\""
par ZrpTestNetwork.visualizer.canvasVisualizer.routingTableVisualizer[0] lineContactSpacing 3
par ZrpTestNetwork.visualizer.canvasVisualizer.routingTableVisualizer[0] lineContactMode "\"rectangular\""
attr enum circular,rectangular
par ZrpTestNetwork.visualizer.canvasVisualizer.routingTableVisualizer[0] labelFormat "\"%d/%m -> %g (%n)\""
attr mutable ""
par ZrpTestNetwork.visualizer.canvasVisualizer.routingTableVisualizer[0] labelFont "\"<default>, 8px\""
par ZrpTestNetwork.visualizer.canvasVisualizer.routingTableVisualizer[0] labelColor "\"black\""
par ZrpTestNetwork.visualizer.canvasVisualizer.routingTableVisualizer[0] zIndex 0
par ZrpTestNetwork.visualizer.canvasVisualizer.transportRouteVisualizer[0] typename "\"inet.visualizer.canvas.transportlayer.TransportRouteCanvasVisualizer\""
par ZrpTestNetwork.visualizer.canvasVisualizer.transportRouteVisualizer[0] visualizationTargetModule "\"^.^.^\""
par ZrpTestNetwork.visualizer.canvasVisualizer.transportRouteVisualizer[0] visualizationSubjectModule "\"^.^.^\""
par ZrpTestNetwork.visualizer.canvasVisualizer.transportRouteVisualizer[0] tags "\"\""
par ZrpTestNetwork.visualizer.canvasVisualizer.transportRouteVisualizer[0] displayRoutes false
par ZrpTestNetwork.visualizer.canvasVisualizer.transportRouteVisualizer[0] startPathSignal "\"packetReceivedFromUpper\""
par ZrpTestNetwork.visualizer.canvasVisualizer.transportRouteVisualizer[0] extendPathSignal "\"packetReceivedFromLower\""
par ZrpTestNetwork.visualizer.canvasVisualizer.transportRouteVisualizer[0] endPathSignal "\"packetSentToUpper\""
par ZrpTestNetwork.visualizer.canvasVisualizer.transportRouteVisualizer[0] nodeFilter "\"*\""
attr mutable ""
par ZrpTestNetwork.visualizer.canvasVisualizer.transportRouteVisualizer[0] packetFilter "(omnetpp::cValueHolder)holder: \"*\""
attr mutable ""
par ZrpTestNetwork.visualizer.canvasVisualizer.transportRouteVisualizer[0] lineColor "\"dark\""
par ZrpTestNetwork.visualizer.canvasVisualizer.transportRouteVisualizer[0] lineStyle "\"solid\""
par ZrpTestNetwork.visualizer.canvasVisualizer.transportRouteVisualizer[0] lineWidth 3
par ZrpTestNetwork.visualizer.canvasVisualizer.transportRouteVisualizer[0] lineSmooth false
par ZrpTestNetwork.visualizer.canvasVisualizer.transportRouteVisualizer[0] lineShift 16
par ZrpTestNetwork.visualizer.canvasVisualizer.transportRouteVisualizer[0] lineShiftMode "\"normal\""
par ZrpTestNetwork.visualizer.canvasVisualizer.transportRouteVisualizer[0] lineContactSpacing 3
par ZrpTestNetwork.visualizer.canvasVisualizer.transportRouteVisualizer[0] lineContactMode "\"rectangular\""
attr enum circular,rectangular
par ZrpTestNetwork.visualizer.canvasVisualizer.transportRouteVisualizer[0] labelFormat "\"%n\""
par ZrpTestNetwork.visualizer.canvasVisualizer.transportRouteVisualizer[0] labelFont "\"<default>, 8px\""
par ZrpTestNetwork.visualizer.canvasVisualizer.transportRouteVisualizer[0] labelColor "\"\""
par ZrpTestNetwork.visualizer.canvasVisualizer.transportRouteVisualizer[0] fadeOutMode "\"realTime\""
attr enum realTime,animationTime,simulationTime
par ZrpTestNetwork.visualizer.canvasVisualizer.transportRouteVisualizer[0] fadeOutTime 1s
attr unit s
par ZrpTestNetwork.visualizer.canvasVisualizer.transportRouteVisualizer[0] fadeOutAnimationSpeed 0
par ZrpTestNetwork.visualizer.canvasVisualizer.transportRouteVisualizer[0] zIndex 4
par ZrpTestNetwork.visualizer.canvasVisualizer.transportConnectionVisualizer[0] typename "\"inet.visualizer.canvas.transportlayer.TransportConnectionCanvasVisualizer\""
par ZrpTestNetwork.visualizer.canvasVisualizer.transportConnectionVisualizer[0] visualizationTargetModule "\"^.^.^\""
par ZrpTestNetwork.visualizer.canvasVisualizer.transportConnectionVisualizer[0] visualizationSubjectModule "\"^.^.^\""
par ZrpTestNetwork.visualizer.canvasVisualizer.transportConnectionVisualizer[0] tags "\"\""
par ZrpTestNetwork.visualizer.canvasVisualizer.transportConnectionVisualizer[0] networkNodeVisualizerModule "\"ZrpTestNetwork.visualizer.canvasVisualizer.networkNodeVisualizer[0]\""
par ZrpTestNetwork.visualizer.canvasVisualizer.transportConnectionVisualizer[0] displayTransportConnections false
par ZrpTestNetwork.visualizer.canvasVisualizer.transportConnectionVisualizer[0] sourceNodeFilter "\"*\""
attr mutable ""
par ZrpTestNetwork.visualizer.canvasVisualizer.transportConnectionVisualizer[0] sourcePortFilter "\"*\""
attr mutable ""
par ZrpTestNetwork.visualizer.canvasVisualizer.transportConnectionVisualizer[0] destinationNodeFilter "\"*\""
attr mutable ""
par ZrpTestNetwork.visualizer.canvasVisualizer.transportConnectionVisualizer[0] destinationPortFilter "\"*\""
attr mutable ""
par ZrpTestNetwork.visualizer.canvasVisualizer.transportConnectionVisualizer[0] icon "\"misc/marker_s\""
par ZrpTestNetwork.visualizer.canvasVisualizer.transportConnectionVisualizer[0] iconColor "\"dark\""
par ZrpTestNetwork.visualizer.canvasVisualizer.transportConnectionVisualizer[0] labelFont "\"<default>\""
par ZrpTestNetwork.visualizer.canvasVisualizer.transportConnectionVisualizer[0] labelColor "\"black\""
par ZrpTestNetwork.visualizer.canvasVisualizer.transportConnectionVisualizer[0] placementHint "\"top\""
par ZrpTestNetwork.visualizer.canvasVisualizer.transportConnectionVisualizer[0] placementPriority 0
par ZrpTestNetwork.visualizer.canvasVisualizer.transportConnectionVisualizer[0] zIndex 4
par ZrpTestNetwork.visualizer.canvasVisualizer.failureProtectionConfigurationVisualizer[0] typename "\"inet.visualizer.canvas.configurator.FailureProtectionConfigurationCanvasVisualizer\""
par ZrpTestNetwork.visualizer.canvasVisualizer.failureProtectionConfigurationVisualizer[0] visualizationTargetModule "\"^.^.^\""
par ZrpTestNetwork.visualizer.canvasVisualizer.failureProtectionConfigurationVisualizer[0] visualizationSubjectModule "\"^.^.^\""
par ZrpTestNetwork.visualizer.canvasVisualizer.failureProtectionConfigurationVisualizer[0] tags "\"\""
par ZrpTestNetwork.visualizer.canvasVisualizer.failureProtectionConfigurationVisualizer[0] displayTrees false
par ZrpTestNetwork.visualizer.canvasVisualizer.failureProtectionConfigurationVisualizer[0] lineColor "\"dark\""
par ZrpTestNetwork.visualizer.canvasVisualizer.failureProtectionConfigurationVisualizer[0] lineStyle "\"solid\""
par ZrpTestNetwork.visualizer.canvasVisualizer.failureProtectionConfigurationVisualizer[0] lineWidth 3
par ZrpTestNetwork.visualizer.canvasVisualizer.failureProtectionConfigurationVisualizer[0] lineSmooth false
par ZrpTestNetwork.visualizer.canvasVisualizer.failureProtectionConfigurationVisualizer[0] lineShift 16
par ZrpTestNetwork.visualizer.canvasVisualizer.failureProtectionConfigurationVisualizer[0] lineShiftMode "\"normal\""
par ZrpTestNetwork.visualizer.canvasVisualizer.failureProtectionConfigurationVisualizer[0] lineContactSpacing 3
par ZrpTestNetwork.visualizer.canvasVisualizer.failureProtectionConfigurationVisualizer[0] lineContactMode "\"rectangular\""
attr enum circular,rectangular
par ZrpTestNetwork.visualizer.canvasVisualizer.failureProtectionConfigurationVisualizer[0] failureProtectionConfiguratorModule "\"failureProtectionConfigurator\""
par ZrpTestNetwork.visualizer.canvasVisualizer.failureProtectionConfigurationVisualizer[0] streamFilter "\"*\""
par ZrpTestNetwork.visualizer.canvasVisualizer.failureProtectionConfigurationVisualizer[0] zIndex 3
par ZrpTestNetwork.visualizer.canvasVisualizer.streamRedundancyConfigurationVisualizer[0] typename "\"inet.visualizer.canvas.configurator.StreamRedundancyConfigurationCanvasVisualizer\""
par ZrpTestNetwork.visualizer.canvasVisualizer.streamRedundancyConfigurationVisualizer[0] visualizationTargetModule "\"^.^.^\""
par ZrpTestNetwork.visualizer.canvasVisualizer.streamRedundancyConfigurationVisualizer[0] visualizationSubjectModule "\"^.^.^\""
par ZrpTestNetwork.visualizer.canvasVisualizer.streamRedundancyConfigurationVisualizer[0] tags "\"\""
par ZrpTestNetwork.visualizer.canvasVisualizer.streamRedundancyConfigurationVisualizer[0] displayTrees false
par ZrpTestNetwork.visualizer.canvasVisualizer.streamRedundancyConfigurationVisualizer[0] lineColor "\"dark\""
par ZrpTestNetwork.visualizer.canvasVisualizer.streamRedundancyConfigurationVisualizer[0] lineStyle "\"solid\""
par ZrpTestNetwork.visualizer.canvasVisualizer.streamRedundancyConfigurationVisualizer[0] lineWidth 3
par ZrpTestNetwork.visualizer.canvasVisualizer.streamRedundancyConfigurationVisualizer[0] lineSmooth false
par ZrpTestNetwork.visualizer.canvasVisualizer.streamRedundancyConfigurationVisualizer[0] lineShift 16
par ZrpTestNetwork.visualizer.canvasVisualizer.streamRedundancyConfigurationVisualizer[0] lineShiftMode "\"normal\""
par ZrpTestNetwork.visualizer.canvasVisualizer.streamRedundancyConfigurationVisualizer[0] lineContactSpacing 3
par ZrpTestNetwork.visualizer.canvasVisualizer.streamRedundancyConfigurationVisualizer[0] lineContactMode "\"rectangular\""
attr enum circular,rectangular
par ZrpTestNetwork.visualizer.canvasVisualizer.streamRedundancyConfigurationVisualizer[0] streamRedundancyConfiguratorModule "\"streamRedundancyConfigurator\""
par ZrpTestNetwork.visualizer.canvasVisualizer.streamRedundancyConfigurationVisualizer[0] streamFilter "\"*\""
par ZrpTestNetwork.visualizer.canvasVisualizer.streamRedundancyConfigurationVisualizer[0] zIndex 3
par ZrpTestNetwork.visualizer.canvasVisualizer typename "\"inet.visualizer.canvas.integrated.IntegratedMultiCanvasVisualizer\""
par ZrpTestNetwork.visualizer.canvasVisualizer numSceneVisualizers 1
par ZrpTestNetwork.visualizer.canvasVisualizer numPhysicalEnvironmentVisualizers 1
par ZrpTestNetwork.visualizer.canvasVisualizer numNetworkNodeVisualizers 1
par ZrpTestNetwork.visualizer.canvasVisualizer numNetworkConnectionVisualizers 1
par ZrpTestNetwork.visualizer.canvasVisualizer numMobilityVisualizers 1
par ZrpTestNetwork.visualizer.canvasVisualizer numStatisticVisualizers 1
par ZrpTestNetwork.visualizer.canvasVisualizer numInfoVisualizers 1
par ZrpTestNetwork.visualizer.canvasVisualizer numEnergyStorageVisualizers 1
par ZrpTestNetwork.visualizer.canvasVisualizer numMediumVisualizers 1
par ZrpTestNetwork.visualizer.canvasVisualizer numObstacleLossVisualizers 1
par ZrpTestNetwork.visualizer.canvasVisualizer numPacketDropVisualizers 1
par ZrpTestNetwork.visualizer.canvasVisualizer numQueueVisualizers 1
par ZrpTestNetwork.visualizer.canvasVisualizer numGateScheduleVisualizers 1
par ZrpTestNetwork.visualizer.canvasVisualizer numRadioVisualizers 1
par ZrpTestNetwork.visualizer.canvasVisualizer numPhysicalLinkVisualizers 1
par ZrpTestNetwork.visualizer.canvasVisualizer numInterfaceTableVisualizers 1
par ZrpTestNetwork.visualizer.canvasVisualizer numDataLinkVisualizers 3
par ZrpTestNetwork.visualizer.canvasVisualizer numLinkBreakVisualizers 1
par ZrpTestNetwork.visualizer.canvasVisualizer numIeee80211Visualizers 1
par ZrpTestNetwork.visualizer.canvasVisualizer numNetworkRouteVisualizers 1
par ZrpTestNetwork.visualizer.canvasVisualizer numRoutingTableVisualizers 1
par ZrpTestNetwork.visualizer.canvasVisualizer numTransportRouteVisualizers 1
par ZrpTestNetwork.visualizer.canvasVisualizer numTransportConnectionVisualizers 1
par ZrpTestNetwork.visualizer.canvasVisualizer numFailureProtectionConfigurationVisualizers 1
par ZrpTestNetwork.visualizer.canvasVisualizer numStreamRedundancyConfigurationVisualizers 1
par ZrpTestNetwork.visualizer typename "\"inet.visualizer.common.IntegratedMultiVisualizer\""
par ZrpTestNetwork.source.radioIn[0].channel typename "\"ned.IdealChannel\""
par ZrpTestNetwork.source.mobility typename "\"inet.mobility.static.StationaryMobility\""
par ZrpTestNetwork.source.mobility subjectModule "\"^\""
par ZrpTestNetwork.source.mobility coordinateSystemModule "\"\""
par ZrpTestNetwork.source.mobility displayStringTextFormat "\"p: %p\\nv: %v\""
attr mutable ""
par ZrpTestNetwork.source.mobility updateDisplayString true
par ZrpTestNetwork.source.mobility constraintAreaMinX 0m
attr unit m
par ZrpTestNetwork.source.mobility constraintAreaMinY 0m
attr unit m
par ZrpTestNetwork.source.mobility constraintAreaMinZ "-inf m"
attr unit m
par ZrpTestNetwork.source.mobility constraintAreaMaxX 400m
attr unit m
par ZrpTestNetwork.source.mobility constraintAreaMaxY 400m
attr unit m
par ZrpTestNetwork.source.mobility constraintAreaMaxZ "inf m"
attr unit m
par ZrpTestNetwork.source.mobility initialX 219.525m
attr unit m
par ZrpTestNetwork.source.mobility initialY 237.138m
attr unit m
par ZrpTestNetwork.source.mobility initialZ 0m
attr unit m
par ZrpTestNetwork.source.mobility initialLatitude "nan deg"
attr unit deg
par ZrpTestNetwork.source.mobility initialLongitude "nan deg"
attr unit deg
par ZrpTestNetwork.source.mobility initialAltitude 0m
attr unit m
par ZrpTestNetwork.source.mobility initialHeading 0deg
attr unit deg
par ZrpTestNetwork.source.mobility initialElevation 0deg
attr unit deg
par ZrpTestNetwork.source.mobility initialBank 0deg
attr unit deg
par ZrpTestNetwork.source.mobility initFromDisplayString true
par ZrpTestNetwork.source.mobility updateFromDisplayString true
par ZrpTestNetwork.source.interfaceTable typename "\"inet.networklayer.common.InterfaceTable\""
par ZrpTestNetwork.source.interfaceTable displayAddresses false
par ZrpTestNetwork.source.cb typename "\"inet.common.MessageDispatcher\""
par ZrpTestNetwork.source.cb displayStringTextFormat "\"processed %p pk (%l)\""
par ZrpTestNetwork.source.cb forwardServiceRegistration true
par ZrpTestNetwork.source.cb forwardProtocolRegistration true
par ZrpTestNetwork.source.bl typename "\"inet.common.MessageDispatcher\""
par ZrpTestNetwork.source.bl displayStringTextFormat "\"processed %p pk (%l)\""
par ZrpTestNetwork.source.bl forwardServiceRegistration true
par ZrpTestNetwork.source.bl forwardProtocolRegistration true
par ZrpTestNetwork.source.li typename "\"inet.common.MessageDispatcher\""
par ZrpTestNetwork.source.li displayStringTextFormat "\"processed %p pk (%l)\""
par ZrpTestNetwork.source.li forwardServiceRegistration true
par ZrpTestNetwork.source.li forwardProtocolRegistration true
par ZrpTestNetwork.source.lo[0].upperLayerIn.channel typename "\"ned.IdealChannel\""
par ZrpTestNetwork.source.lo[0].lo.upperLayerOut.channel typename "\"ned.IdealChannel\""
par ZrpTestNetwork.source.lo[0].lo typename "\"inet.linklayer.loopback.Loopback\""
par ZrpTestNetwork.source.lo[0].lo interfaceTableModule "\"ZrpTestNetwork.source.interfaceTable\""
par ZrpTestNetwork.source.lo[0].lo mtu 4470B
attr unit B
scalar ZrpTestNetwork.source.lo[0].lo rcvdPkFromHl:count 0
attr interpolationmode none
attr recordingmode count
attr source packetReceivedFromUpper
attr title "packets received from higher layer, count"
scalar ZrpTestNetwork.source.lo[0].lo rcvdPkFromHl:sum(packetBytes) 0
attr interpolationmode none
attr recordingmode sum(packetBytes)
attr source packetReceivedFromUpper
attr title "packets received from higher layer, sum(packetBytes)"
scalar ZrpTestNetwork.source.lo[0].lo passedUpPk:count 0
attr interpolationmode none
attr recordingmode count
attr source packetSentToUpper
attr title "packets passed to higher layer, count"
scalar ZrpTestNetwork.source.lo[0].lo passedUpPk:sum(packetBytes) 0
attr interpolationmode none
attr recordingmode sum(packetBytes)
attr source packetSentToUpper
attr title "packets passed to higher layer, sum(packetBytes)"
par ZrpTestNetwork.source.lo[0] typename "\"inet.linklayer.loopback.LoopbackInterface\""
par ZrpTestNetwork.source.lo[0] displayStringTextFormat "\"%a (%i)\\n%m\""
par ZrpTestNetwork.source.lo[0] recordPcap false
par ZrpTestNetwork.source.lo[0] numPcapRecorders 0
par ZrpTestNetwork.source.lo[0] interfaceTableModule "\"ZrpTestNetwork.source.interfaceTable\""
scalar ZrpTestNetwork.source.lo[0] packetDropInterfaceDown:count 0
attr interpolationmode none
attr recordingmode count
attr source packetDropReasonIsInterfaceDown(packetDropped)
attr title "packet drops: interface down, count"
scalar ZrpTestNetwork.source.lo[0] packetDropInterfaceDown:sum(packetBytes) 0
attr interpolationmode none
attr recordingmode sum(packetBytes)
attr source packetDropReasonIsInterfaceDown(packetDropped)
attr title "packet drops: interface down, sum(packetBytes)"
scalar ZrpTestNetwork.source.lo[0] packetDropNoCarrier:count 0
attr interpolationmode none
attr recordingmode count
attr source packetDropReasonIsNoCarrier(packetDropped)
attr title "packet drops: no carrier, count"
scalar ZrpTestNetwork.source.lo[0] packetDropNoCarrier:sum(packetBytes) 0
attr interpolationmode none
attr recordingmode sum(packetBytes)
attr source packetDropReasonIsNoCarrier(packetDropped)
attr title "packet drops: no carrier, sum(packetBytes)"
par ZrpTestNetwork.source.wlan[0].radioIn.channel typename "\"ned.IdealChannel\""
par ZrpTestNetwork.source.wlan[0].llc.upperLayerOut.channel typename "\"ned.IdealChannel\""
par ZrpTestNetwork.source.wlan[0].upperLayerIn.channel typename "\"ned.IdealChannel\""
par ZrpTestNetwork.source.wlan[0].mib typename "\"inet.linklayer.ieee80211.mib.Ieee80211Mib\""
par ZrpTestNetwork.source.wlan[0].llc typename "\"inet.linklayer.ieee80211.llc.Ieee80211LlcLpd\""
par ZrpTestNetwork.source.wlan[0].llc registerProtocol false
par ZrpTestNetwork.source.wlan[0].mgmt typename "\"inet.linklayer.ieee80211.mgmt.Ieee80211MgmtAdhoc\""
par ZrpTestNetwork.source.wlan[0].mgmt mibModule "\"ZrpTestNetwork.source.wlan[0].mib\""
par ZrpTestNetwork.source.wlan[0].mgmt macModule "\"ZrpTestNetwork.source.wlan[0].mac\""
par ZrpTestNetwork.source.wlan[0].mgmt interfaceTableModule "\"ZrpTestNetwork.source.interfaceTable\""
par ZrpTestNetwork.source.wlan[0].mac.dcf.channelAccess.pendingQueue typename "\"inet.linklayer.ieee80211.mac.queue.PendingQueue\""
par ZrpTestNetwork.source.wlan[0].mac.dcf.channelAccess.pendingQueue displayStringTextFormat "\"contains %p pk (%l) pushed %u\\npulled %o removed %r dropped %d\""
par ZrpTestNetwork.source.wlan[0].mac.dcf.channelAccess.pendingQueue packetCapacity 100
par ZrpTestNetwork.source.wlan[0].mac.dcf.channelAccess.pendingQueue dataCapacity -1b
attr unit b
par ZrpTestNetwork.source.wlan[0].mac.dcf.channelAccess.pendingQueue dropperClass "\"inet::queueing::PacketAtCollectionEndDropper\""
par ZrpTestNetwork.source.wlan[0].mac.dcf.channelAccess.pendingQueue comparatorClass "\"inet::ieee80211::MgmtOverDataComparator\""
par ZrpTestNetwork.source.wlan[0].mac.dcf.channelAccess.pendingQueue bufferModule "\"\""
scalar ZrpTestNetwork.source.wlan[0].mac.dcf.channelAccess.pendingQueue queueLength:last 0
attr autoWarmupFilter false
attr interpolationmode sample-hold
attr recordingmode last
attr source "warmup(atomic(constant0(packetPushEnded) + count(packetPushStarted) - count(packetPulled) - count(packetRemoved) - count(packetDropped)))"
attr title "queue length, last"
attr unit pk
scalar ZrpTestNetwork.source.wlan[0].mac.dcf.channelAccess.pendingQueue queueLength:max 2
attr autoWarmupFilter false
attr interpolationmode sample-hold
attr recordingmode max
attr source "warmup(atomic(constant0(packetPushEnded) + count(packetPushStarted) - count(packetPulled) - count(packetRemoved) - count(packetDropped)))"
[...]
par ZrpTestNetwork.node6.wlan[0].radio channelNumber 0
par ZrpTestNetwork.node6.wlan[0].radio crcMode "\"declared\""
attr enum declared,computed
statistic ZrpTestNetwork.node6.wlan[0].radio radioChannel:histogram
field count 1
field mean 0
field stddev nan
field min 0
field max 0
field sum 0
field sqrsum 0
attr interpolationmode sample-hold
attr recordingmode histogram
attr source radioChannelChanged
attr title "Radio channel"
bin	-inf	0
bin	-0.5	0
bin	-0.48	0
bin	-0.46	0
bin	-0.44	0
bin	-0.42	0
bin	-0.4	0
bin	-0.38	0
bin	-0.36	0
bin	-0.34	0
bin	-0.32	0
bin	-0.3	0
bin	-0.28	0
bin	-0.26	0
bin	-0.24	0
bin	-0.22	0
bin	-0.2	0
bin	-0.18	0
bin	-0.16	0
bin	-0.14	0
bin	-0.12	0
bin	-0.1	0
bin	-0.08	0
bin	-0.06	0
bin	-0.04	0
bin	-0.02	0
bin	0	1
bin	0.02	0
bin	0.04	0
bin	0.06	0
bin	0.08	0
bin	0.1	0
bin	0.12	0
bin	0.14	0
bin	0.16	0
bin	0.18	0
bin	0.2	0
bin	0.22	0
bin	0.24	0
bin	0.26	0
bin	0.28	0
bin	0.3	0
bin	0.32	0
bin	0.34	0
bin	0.36	0
bin	0.38	0
bin	0.4	0
bin	0.42	0
bin	0.44	0
bin	0.46	0
bin	0.48	0
bin	0.5	0
scalar ZrpTestNetwork.node6.wlan[0].radio radioMode:count 31
attr interpolationmode sample-hold
attr recordingmode count
attr source radioModeChanged
attr title "Radio mode, count"
scalar ZrpTestNetwork.node6.wlan[0].radio receptionState:count 123
attr interpolationmode sample-hold
attr recordingmode count
attr source receptionStateChanged
attr title "Radio reception state, count"
scalar ZrpTestNetwork.node6.wlan[0].radio transmissionState:count 56
attr interpolationmode sample-hold
attr recordingmode count
attr source transmissionStateChanged
attr title "Radio transmission state, count"
statistic ZrpTestNetwork.node6.wlan[0].radio minSnir:histogram
field count 47
field mean 804.01814157113
field stddev 68.425379314092
field min 727.35224985274
field max 894.80360015726
field sum 37788.852653843
field sqrsum 30598296.579425
attr recordingmode histogram
attr source minimumSnir(packetSentToUpper)
attr title "Min SNIR"
bin	-inf	0
bin	685	0
bin	690	0
bin	695	0
bin	700	0
bin	705	0
bin	710	0
bin	715	0
bin	720	0
bin	725	17
bin	730	0
bin	735	0
bin	740	0
bin	745	0
bin	750	0
bin	755	0
bin	760	0
bin	765	0
bin	770	0
bin	775	0
bin	780	0
bin	785	0
bin	790	0
bin	795	0
bin	800	0
bin	805	16
bin	810	0
bin	815	0
bin	820	0
bin	825	0
bin	830	0
bin	835	0
bin	840	0
bin	845	0
bin	850	0
bin	855	0
bin	860	0
bin	865	0
bin	870	0
bin	875	0
bin	880	0
bin	885	0
bin	890	14
bin	895	0
bin	900	0
bin	905	0
bin	910	0
bin	915	0
bin	920	0
bin	925	0
bin	930	0
bin	935	0
bin	940	0
statistic ZrpTestNetwork.node6.wlan[0].radio packetErrorRate:histogram
field count 47
field mean 0
field stddev 0
field min 0
field max 0
field sum 0
field sqrsum 0
attr recordingmode histogram
attr source packetErrorRate(packetSentToUpper)
attr title "Packet error rate"
bin	-inf	0
bin	-0.5	0
bin	-0.48	0
bin	-0.46	0
bin	-0.44	0
bin	-0.42	0
bin	-0.4	0
bin	-0.38	0
bin	-0.36	0
bin	-0.34	0
bin	-0.32	0
bin	-0.3	0
bin	-0.28	0
bin	-0.26	0
bin	-0.24	0
bin	-0.22	0
bin	-0.2	0
bin	-0.18	0
bin	-0.16	0
bin	-0.14	0
bin	-0.12	0
bin	-0.1	0
bin	-0.08	0
bin	-0.06	0
bin	-0.04	0
bin	-0.02	0
bin	0	47
bin	0.02	0
bin	0.04	0
bin	0.06	0
bin	0.08	0
bin	0.1	0
bin	0.12	0
bin	0.14	0
bin	0.16	0
bin	0.18	0
bin	0.2	0
bin	0.22	0
bin	0.24	0
bin	0.26	0
bin	0.28	0
bin	0.3	0
bin	0.32	0
bin	0.34	0
bin	0.36	0
bin	0.38	0
bin	0.4	0
bin	0.42	0
bin	0.44	0
bin	0.46	0
bin	0.48	0
bin	0.5	0
statistic ZrpTestNetwork.node6.wlan[0].radio bitErrorRate:histogram
field count 0
field mean -nan
field stddev nan
field min nan
field max nan
field sum 0
field sqrsum 0
attr recordingmode histogram
attr source bitErrorRate(packetSentToUpper)
attr title "Bit error rate"
bin	-inf	0
bin	0	0
bin	1	0
statistic ZrpTestNetwork.node6.wlan[0].radio symbolErrorRate:histogram
field count 0
field mean -nan
field stddev nan
field min nan
field max nan
field sum 0
field sqrsum 0
attr recordingmode histogram
attr source symbolErrorRate(packetSentToUpper)
attr title "Symbol error rate"
bin	-inf	0
bin	0	0
bin	1	0
par ZrpTestNetwork.node6.wlan[0] typename "\"inet.linklayer.ieee80211.Ieee80211Interface\""
par ZrpTestNetwork.node6.wlan[0] displayStringTextFormat "\"%a (%i)\\n%m\""
par ZrpTestNetwork.node6.wlan[0] recordPcap false
par ZrpTestNetwork.node6.wlan[0] numPcapRecorders 0
par ZrpTestNetwork.node6.wlan[0] interfaceTableModule "\"ZrpTestNetwork.node6.interfaceTable\""
par ZrpTestNetwork.node6.wlan[0] energySourceModule "\"\""
par ZrpTestNetwork.node6.wlan[0] opMode "\"g(mixed)\""
attr enum a,b,g(erp),g(mixed),n(mixed-2.4Ghz),p,ac
par ZrpTestNetwork.node6.wlan[0] address "\"0A-AA-00-00-00-08\""
attr mutable ""
par ZrpTestNetwork.node6.wlan[0] protocol "\"\""
par ZrpTestNetwork.node6.wlan[0] bitrate 2.4e+07bps
attr unit bps
scalar ZrpTestNetwork.node6.wlan[0] packetDropInterfaceDown:count 0
attr interpolationmode none
attr recordingmode count
attr source packetDropReasonIsInterfaceDown(packetDropped)
attr title "packet drops: interface down, count"
scalar ZrpTestNetwork.node6.wlan[0] packetDropInterfaceDown:sum(packetBytes) 0
attr interpolationmode none
attr recordingmode sum(packetBytes)
attr source packetDropReasonIsInterfaceDown(packetDropped)
attr title "packet drops: interface down, sum(packetBytes)"
scalar ZrpTestNetwork.node6.wlan[0] packetDropNoCarrier:count 0
attr interpolationmode none
attr recordingmode count
attr source packetDropReasonIsNoCarrier(packetDropped)
attr title "packet drops: no carrier, count"
scalar ZrpTestNetwork.node6.wlan[0] packetDropNoCarrier:sum(packetBytes) 0
attr interpolationmode none
attr recordingmode sum(packetBytes)
attr source packetDropReasonIsNoCarrier(packetDropped)
attr title "packet drops: no carrier, sum(packetBytes)"
par ZrpTestNetwork.node6.ipv4.transportIn.channel typename "\"ned.IdealChannel\""
par ZrpTestNetwork.node6.ipv4.up.out[0].channel typename "\"ned.IdealChannel\""
par ZrpTestNetwork.node6.ipv4.lp.out[2].channel typename "\"ned.IdealChannel\""
par ZrpTestNetwork.node6.ipv4.ifIn.channel typename "\"ned.IdealChannel\""
par ZrpTestNetwork.node6.ipv4.configurator typename "\"inet.networklayer.configurator.ipv4.Ipv4NodeConfigurator\""
par ZrpTestNetwork.node6.ipv4.configurator interfaceTableModule "\"ZrpTestNetwork.node6.interfaceTable\""
par ZrpTestNetwork.node6.ipv4.configurator routingTableModule "\"ZrpTestNetwork.node6.ipv4.routingTable\""
par ZrpTestNetwork.node6.ipv4.configurator networkConfiguratorModule "\"configurator\""
par ZrpTestNetwork.node6.ipv4.configurator configureRoutingTable true
par ZrpTestNetwork.node6.ipv4.routingTable typename "\"inet.networklayer.ipv4.Ipv4RoutingTable\""
par ZrpTestNetwork.node6.ipv4.routingTable interfaceTableModule "\"ZrpTestNetwork.node6.interfaceTable\""
par ZrpTestNetwork.node6.ipv4.routingTable routerId "\"auto\""
par ZrpTestNetwork.node6.ipv4.routingTable netmaskRoutes "\"\""
par ZrpTestNetwork.node6.ipv4.routingTable forwarding true
par ZrpTestNetwork.node6.ipv4.routingTable multicastForwarding false
par ZrpTestNetwork.node6.ipv4.routingTable useAdminDist false
par ZrpTestNetwork.node6.ipv4.routingTable routingFile "\"\""
par ZrpTestNetwork.node6.ipv4.natTable typename "\"inet.networklayer.ipv4.Ipv4NatTable\""
par ZrpTestNetwork.node6.ipv4.natTable networkProtocolModule "\"^.ip\""
par ZrpTestNetwork.node6.ipv4.natTable config "<config/> at content:1"
par ZrpTestNetwork.node6.ipv4.up typename "\"inet.common.MessageDispatcher\""
par ZrpTestNetwork.node6.ipv4.up displayStringTextFormat "\"processed %p pk (%l)\""
par ZrpTestNetwork.node6.ipv4.up forwardServiceRegistration true
par ZrpTestNetwork.node6.ipv4.up forwardProtocolRegistration true
par ZrpTestNetwork.node6.ipv4.igmp typename "\"inet.networklayer.ipv4.Igmpv2\""
par ZrpTestNetwork.node6.ipv4.igmp interfaceTableModule "\"ZrpTestNetwork.node6.interfaceTable\""
par ZrpTestNetwork.node6.ipv4.igmp routingTableModule "\"ZrpTestNetwork.node6.ipv4.routingTable\""
par ZrpTestNetwork.node6.ipv4.igmp crcMode "\"declared\""
attr enum declared,computed
par ZrpTestNetwork.node6.ipv4.igmp enabled true
par ZrpTestNetwork.node6.ipv4.igmp robustnessVariable 2
par ZrpTestNetwork.node6.ipv4.igmp queryInterval 125s
attr unit s
par ZrpTestNetwork.node6.ipv4.igmp queryResponseInterval 10s
attr unit s
par ZrpTestNetwork.node6.ipv4.igmp groupMembershipInterval 260s
attr unit s
par ZrpTestNetwork.node6.ipv4.igmp otherQuerierPresentInterval 255s
attr unit s
par ZrpTestNetwork.node6.ipv4.igmp startupQueryInterval 31.25s
attr unit s
par ZrpTestNetwork.node6.ipv4.igmp startupQueryCount 2
par ZrpTestNetwork.node6.ipv4.igmp lastMemberQueryInterval 1s
attr unit s
par ZrpTestNetwork.node6.ipv4.igmp lastMemberQueryCount 2
par ZrpTestNetwork.node6.ipv4.igmp unsolicitedReportInterval 10s
attr unit s
par ZrpTestNetwork.node6.ipv4.icmp typename "\"inet.networklayer.ipv4.Icmp\""
par ZrpTestNetwork.node6.ipv4.icmp interfaceTableModule "\"ZrpTestNetwork.node6.interfaceTable\""
par ZrpTestNetwork.node6.ipv4.icmp routingTableModule "\"ZrpTestNetwork.node6.ipv4.routingTable\""
par ZrpTestNetwork.node6.ipv4.icmp crcMode "\"declared\""
attr enum declared,computed
attr mutable ""
par ZrpTestNetwork.node6.ipv4.icmp quoteLength 8B
attr mutable ""
attr unit B
par ZrpTestNetwork.node6.ipv4.mp typename "\"inet.common.MessageDispatcher\""
par ZrpTestNetwork.node6.ipv4.mp displayStringTextFormat "\"processed %p pk (%l)\""
par ZrpTestNetwork.node6.ipv4.mp forwardServiceRegistration true
par ZrpTestNetwork.node6.ipv4.mp forwardProtocolRegistration true
par ZrpTestNetwork.node6.ipv4.ip typename "\"inet.networklayer.ipv4.Ipv4\""
par ZrpTestNetwork.node6.ipv4.ip interfaceTableModule "\"ZrpTestNetwork.node6.interfaceTable\""
par ZrpTestNetwork.node6.ipv4.ip routingTableModule "\"ZrpTestNetwork.node6.ipv4.routingTable\""
par ZrpTestNetwork.node6.ipv4.ip arpModule "\"ZrpTestNetwork.node6.ipv4.arp\""
par ZrpTestNetwork.node6.ipv4.ip icmpModule "\"ZrpTestNetwork.node6.ipv4.icmp\""
par ZrpTestNetwork.node6.ipv4.ip crcMode "\"declared\""
attr enum declared,computed
par ZrpTestNetwork.node6.ipv4.ip timeToLive 32
par ZrpTestNetwork.node6.ipv4.ip multicastTimeToLive 32
par ZrpTestNetwork.node6.ipv4.ip fragmentTimeout 60s
attr unit s
par ZrpTestNetwork.node6.ipv4.ip limitedBroadcast false
par ZrpTestNetwork.node6.ipv4.ip directBroadcastInterfaces "\"\""
scalar ZrpTestNetwork.node6.ipv4.ip packetDropAddressResolutionFailed:count 0
attr interpolationmode none
attr recordingmode count
attr source packetDropReasonIsAddressResolutionFailed(packetDropped)
attr title "packet drop: address resolution failed, count"
scalar ZrpTestNetwork.node6.ipv4.ip packetDropAddressResolutionFailed:sum(packetBytes) 0
attr interpolationmode none
attr recordingmode sum(packetBytes)
attr source packetDropReasonIsAddressResolutionFailed(packetDropped)
attr title "packet drop: address resolution failed, sum(packetBytes)"
scalar ZrpTestNetwork.node6.ipv4.ip packetDropHopLimitReached:count 0
attr interpolationmode none
attr recordingmode count
attr source packetDropReasonIsHopLimitReached(packetDropped)
attr title "packet drop: hop limit reached, count"
scalar ZrpTestNetwork.node6.ipv4.ip packetDropHopLimitReached:sum(packetBytes) 0
attr interpolationmode none
attr recordingmode sum(packetBytes)
attr source packetDropReasonIsHopLimitReached(packetDropped)
attr title "packet drop: hop limit reached, sum(packetBytes)"
scalar ZrpTestNetwork.node6.ipv4.ip packetDropForwardingDisabled:count 0
attr interpolationmode none
attr recordingmode count
attr source packetDropReasonIsForwardingDisabled(packetDropped)
attr title "packet drop: forwarding disabled, count"
scalar ZrpTestNetwork.node6.ipv4.ip packetDropForwardingDisabled:sum(packetBytes) 0
attr interpolationmode none
attr recordingmode sum(packetBytes)
attr source packetDropReasonIsForwardingDisabled(packetDropped)
attr title "packet drop: forwarding disabled, sum(packetBytes)"
scalar ZrpTestNetwork.node6.ipv4.ip packetDropNoInterfaceFound:count 0
attr interpolationmode none
attr recordingmode count
attr source packetDropReasonIsNoInterfaceFound(packetDropped)
attr title "packet drop: no interface found, count"
scalar ZrpTestNetwork.node6.ipv4.ip packetDropNoInterfaceFound:sum(packetBytes) 0
attr interpolationmode none
attr recordingmode sum(packetBytes)
attr source packetDropReasonIsNoInterfaceFound(packetDropped)
attr title "packet drop: no interface found, sum(packetBytes)"
scalar ZrpTestNetwork.node6.ipv4.ip packetDropNoRouteFound:count 0
attr interpolationmode none
attr recordingmode count
attr source packetDropReasonIsNoRouteFound(packetDropped)
attr title "packet drop: no route found, count"
scalar ZrpTestNetwork.node6.ipv4.ip packetDropNoRouteFound:sum(packetBytes) 0
attr interpolationmode none
attr recordingmode sum(packetBytes)
attr source packetDropReasonIsNoRouteFound(packetDropped)
attr title "packet drop: no route found, sum(packetBytes)"
scalar ZrpTestNetwork.node6.ipv4.ip packetDropUndefined:count 0
attr interpolationmode none
attr recordingmode count
attr source packetDropReasonIsUndefined(packetDropped)
attr title "packet drop: undefined, count"
scalar ZrpTestNetwork.node6.ipv4.ip packetDropUndefined:sum(packetBytes) 0
attr interpolationmode none
attr recordingmode sum(packetBytes)
attr source packetDropReasonIsUndefined(packetDropped)
attr title "packet drop: undefined, sum(packetBytes)"
par ZrpTestNetwork.node6.ipv4.arp typename "\"inet.networklayer.arp.ipv4.GlobalArp\""
par ZrpTestNetwork.node6.ipv4.arp interfaceTableModule "\"ZrpTestNetwork.node6.interfaceTable\""
par ZrpTestNetwork.node6.ipv4.arp addressType "\"ipv4\""
attr enum ipv4,ipv6,mac,moduleid,modulepath
par ZrpTestNetwork.node6.ipv4.lp typename "\"inet.common.MessageDispatcher\""
par ZrpTestNetwork.node6.ipv4.lp displayStringTextFormat "\"processed %p pk (%l)\""
par ZrpTestNetwork.node6.ipv4.lp forwardServiceRegistration true
par ZrpTestNetwork.node6.ipv4.lp forwardProtocolRegistration true
par ZrpTestNetwork.node6.ipv4 typename "\"inet.networklayer.ipv4.Ipv4NetworkLayer\""
par ZrpTestNetwork.node6.ipv4 forwarding true
par ZrpTestNetwork.node6.ipv4 multicastForwarding false
par ZrpTestNetwork.node6.ipv4 interfaceTableModule "\"ZrpTestNetwork.node6.interfaceTable\""
par ZrpTestNetwork.node6.ipv4 displayStringTextFormat "\"%i\""
par ZrpTestNetwork.node6.nl typename "\"inet.common.MessageDispatcher\""
par ZrpTestNetwork.node6.nl displayStringTextFormat "\"processed %p pk (%l)\""
par ZrpTestNetwork.node6.nl forwardServiceRegistration true
par ZrpTestNetwork.node6.nl forwardProtocolRegistration true
par ZrpTestNetwork.node6.udp typename "\"inet.transportlayer.udp.Udp\""
par ZrpTestNetwork.node6.udp interfaceTableModule "\"ZrpTestNetwork.node6.interfaceTable\""
par ZrpTestNetwork.node6.udp icmpModule "\"^.ipv4.icmp\""
par ZrpTestNetwork.node6.udp icmpv6Module "\"^.ipv6.icmpv6\""
par ZrpTestNetwork.node6.udp crcMode "\"declared\""
attr enum disabled,declared,computed
par ZrpTestNetwork.node6.udp defaultMulticastLoop true
scalar ZrpTestNetwork.node6.udp packetReceived:count 44
attr interpolationmode none
attr recordingmode count
attr source packetReceived
attr title "packets received, count"
scalar ZrpTestNetwork.node6.udp packetReceived:sum(packetBytes) 1168
attr interpolationmode none
attr recordingmode sum(packetBytes)
attr source packetReceived
attr title "packets received, sum(packetBytes)"
scalar ZrpTestNetwork.node6.udp packetSent:count 14
attr interpolationmode none
attr recordingmode count
attr source packetSent
attr title "packets sent, count"
scalar ZrpTestNetwork.node6.udp packetSent:sum(packetBytes) 316
attr interpolationmode none
attr recordingmode sum(packetBytes)
attr source packetSent
attr title "packets sent, sum(packetBytes)"
scalar ZrpTestNetwork.node6.udp passedUpPk:count 44
attr interpolationmode none
attr recordingmode count
attr source packetSentToUpper
attr title "packets passed up, count"
scalar ZrpTestNetwork.node6.udp droppedPkWrongPort:count 0
attr interpolationmode none
attr recordingmode count
attr source packetDropReasonIsNoPortFound(packetDropped)
attr title "packets dropped (wrong port), count"
scalar ZrpTestNetwork.node6.udp droppedPkBadChecksum:count 0
attr interpolationmode none
attr recordingmode count
attr source packetDropReasonIsIncorrectlyReceived(packetDropped)
attr title "packets dropped (checksum error), count"
par ZrpTestNetwork.node6.tcp typename "\"inet.transportlayer.tcp.Tcp\""
par ZrpTestNetwork.node6.tcp crcMode "\"declared\""
attr enum declared,computed
par ZrpTestNetwork.node6.tcp advertisedWindow 7504
par ZrpTestNetwork.node6.tcp delayedAcksEnabled false
par ZrpTestNetwork.node6.tcp nagleEnabled true
par ZrpTestNetwork.node6.tcp limitedTransmitEnabled false
par ZrpTestNetwork.node6.tcp increasedIWEnabled false
par ZrpTestNetwork.node6.tcp sackSupport false
par ZrpTestNetwork.node6.tcp windowScalingSupport false
par ZrpTestNetwork.node6.tcp windowScalingFactor -1
par ZrpTestNetwork.node6.tcp timestampSupport false
par ZrpTestNetwork.node6.tcp mss 536
par ZrpTestNetwork.node6.tcp msl 120s
attr unit s
par ZrpTestNetwork.node6.tcp tcpAlgorithmClass "\"TcpReno\""
par ZrpTestNetwork.node6.tcp useDataNotification false
par ZrpTestNetwork.node6.tcp dupthresh 3
par ZrpTestNetwork.node6.tcp initialSsthresh 4294967295
par ZrpTestNetwork.node6.tcp stopOperationExtraTime 0s
attr unit s
par ZrpTestNetwork.node6.tcp stopOperationTimeout 2s
attr unit s
par ZrpTestNetwork.node6.tcp ecnWillingness false
par ZrpTestNetwork.node6.tcp dctcpGamma 0.0625
par ZrpTestNetwork.node6.tn typename "\"inet.common.MessageDispatcher\""
par ZrpTestNetwork.node6.tn displayStringTextFormat "\"processed %p pk (%l)\""
par ZrpTestNetwork.node6.tn forwardServiceRegistration true
par ZrpTestNetwork.node6.tn forwardProtocolRegistration true
par ZrpTestNetwork.node6.app[0] typename "\"sa_zrp.Zrp\""
par ZrpTestNetwork.node6.app[0] routingTableModule "\"^.ipv4.routingTable\""
par ZrpTestNetwork.node6.app[0] interfaceTableModule "\"ZrpTestNetwork.node6.interfaceTable\""
par ZrpTestNetwork.node6.app[0] networkProtocolModule "\"^.ipv4.ip\""
par ZrpTestNetwork.node6.app[0] udpPort 654
par ZrpTestNetwork.node6.app[0] interface "\"wlan0\""
par ZrpTestNetwork.node6.app[0] zoneRadius 2
par ZrpTestNetwork.node6.app[0] NDP_helloInterval 1s
attr unit s
par ZrpTestNetwork.node6.app[0] IARP_updateInterval 2s
attr unit s
par ZrpTestNetwork.node6.app[0] linkStateLifetime 5s
attr unit s
par ZrpTestNetwork.node6.app[0] debugInterval 5s
attr unit s
par ZrpTestNetwork.node6.app[0] brpJitterMax 0.1s
attr unit s
par ZrpTestNetwork.node6.app[0] brpCoverageLifetime 30s
attr unit s
par ZrpTestNetwork.node6.app[0] ierpRetryInterval 3s
attr unit s
par ZrpTestNetwork.node6.app[0] ierpMaxRetries 3
par ZrpTestNetwork.node6.at typename "\"inet.common.MessageDispatcher\""
par ZrpTestNetwork.node6.at displayStringTextFormat "\"processed %p pk (%l)\""
par ZrpTestNetwork.node6.at forwardServiceRegistration true
par ZrpTestNetwork.node6.at forwardProtocolRegistration true
par ZrpTestNetwork.node6 typename "\"inet.node.inet.ManetRouter\""
par ZrpTestNetwork.node6 hasStatus false
par ZrpTestNetwork.node6 osgModel "\"\""
par ZrpTestNetwork.node6 osgModelColor "\"\""
par ZrpTestNetwork.node6 canvasImage "\"\""
par ZrpTestNetwork.node6 canvasImageColor "\"\""
par ZrpTestNetwork.node6 recordPcap false
par ZrpTestNetwork.node6 numPcapRecorders 0
par ZrpTestNetwork.node6 numLoInterfaces 1
par ZrpTestNetwork.node6 numWlanInterfaces 1
par ZrpTestNetwork.node6 numEthInterfaces 0
par ZrpTestNetwork.node6 numPppInterfaces 0
par ZrpTestNetwork.node6 numTunInterfaces 0
par ZrpTestNetwork.node6 numVirtInterfaces 0
par ZrpTestNetwork.node6 fcsMode "\"declared\""
attr enum declared,computed
par ZrpTestNetwork.node6 hasIpv4 true
par ZrpTestNetwork.node6 hasIpv6 false
par ZrpTestNetwork.node6 hasGn false
par ZrpTestNetwork.node6 forwarding true
par ZrpTestNetwork.node6 multicastForwarding false
par ZrpTestNetwork.node6 hasUdp true
par ZrpTestNetwork.node6 hasTcp true
par ZrpTestNetwork.node6 hasSctp false
par ZrpTestNetwork.node6 numApps 1
par ZrpTestNetwork typename "\"sa_zrp.simulations.ZrpTestNetwork\""

