version 3
run Stationary-0-20260203-16:46:18-124571
attr configname Stationary
attr datetime 20260203-16:46:18
attr datetimef 20260203-164618
attr experiment Stationary
attr inifile omnetpp.ini
attr iterationvars ""
attr iterationvarsd ""
attr iterationvarsf ""
attr measurement ""
attr network ZrpTestNetwork
attr processid 124571
attr repetition 0
attr replication #0
attr resultdir results
attr runnumber 0
attr seedset 0
config image-path ../../inet-4.5.4/images
config description "Static nodes - basic ZRP functionality test"
config network ZrpTestNetwork
config sim-time-limit 100s
config *.configurator.addStaticRoutes false
config **.netmaskRoutes "\"\""
config **.arp.typename GlobalArp
config **.wlan[*].bitrate 24Mbps
config **.transmitter.power 1mW
config **.displayCommunicationRanges true
config **.constraintAreaMaxX 400m
config **.constraintAreaMaxY 400m
config **.constraintAreaMinX 0m
config **.constraintAreaMinY 0m
config *.*.numApps 1
config *.*.app[0].typename sa_zrp.Zrp
config *.*.app[0].zoneRadius 2
config *.*.app[0].NDP_helloInterval 1s
config *.*.app[0].IARP_updateInterval 2s
config *.*.app[0].linkStateLifetime 5s
config *.*.app[0].interface "\"wlan0\""
config *.*.app[0].debugInterval 5s
config *.source.numApps 2
config *.source.app[1].typename PingApp
config *.source.app[1].destAddr "\"destination\""
config *.source.app[1].startTime 10s
config *.source.app[1].sendInterval 1s
config *.source.app[1].printPing true
config *.visualizer.*.numDataLinkVisualizers 3
config *.visualizer.*.dataLinkVisualizer[*].activityLevel "\"peer\""
config *.visualizer.*.dataLinkVisualizer[*].displayLinks true
config *.visualizer.*.dataLinkVisualizer[0].packetFilter "\"NDP_Hello\""
config *.visualizer.*.dataLinkVisualizer[0].*Color "\"green\""
config *.visualizer.*.dataLinkVisualizer[1].packetFilter "\"IARP_LinkStateUpdate\""
config *.visualizer.*.dataLinkVisualizer[1].*Color "\"orange\""
config *.visualizer.*.dataLinkVisualizer[2].packetFilter "\"ping*\""
config *.visualizer.*.dataLinkVisualizer[2].*Color "\"blue\""
config *.visualizer.*.networkRouteVisualizer[0].displayRoutes true
config *.visualizer.*.networkRouteVisualizer[0].packetFilter "\"*ping*\""
config *.visualizer.*.routingTableVisualizer[0].displayRoutingTables true
config *.visualizer.*.routingTableVisualizer[0].displayLabels false
config *.visualizer.*.routingTableVisualizer[0].displayRoutesIndividually false
config *.visualizer.*.routingTableVisualizer[0].lineShift 0
config *.visualizer.*.interfaceTableVisualizer[0].displayInterfaceTables true
config *.visualizer.*.interfaceTableVisualizer[0].format "\"%a/%l\""
config *.visualizer.*.mediumVisualizer[0].displaySignals true
config *.visualizer.*.mediumVisualizer[0].signalPropagationAnimationSpeed 500
config *.visualizer.*.infoVisualizer[0].displayInfos true
config *.visualizer.*.infoVisualizer[0].modules "\"*.*.app[0]\""
config *.visualizer.*.infoVisualizer[0].format "\"N:%p, Z:%t\""

vector 0 ZrpTestNetwork.source.lo[0].lo rcvdPkFromHl:vector(packetBytes) ETV
attr interpolationmode none
attr recordingmode vector(packetBytes)
attr source packetReceivedFromUpper
attr title "packets received from higher layer, packetBytes"
vector 1 ZrpTestNetwork.source.lo[0].lo passedUpPk:vector(packetBytes) ETV
attr interpolationmode none
attr recordingmode vector(packetBytes)
attr source packetSentToUpper
attr title "packets passed to higher layer, packetBytes"
vector 2 ZrpTestNetwork.source.lo[0] packetDropInterfaceDown:vector(packetBytes) ETV
attr interpolationmode none
attr recordingmode vector(packetBytes)
attr source packetDropReasonIsInterfaceDown(packetDropped)
attr title "packet drops: interface down, packetBytes"
vector 3 ZrpTestNetwork.source.lo[0] packetDropNoCarrier:vector(packetBytes) ETV
attr interpolationmode none
attr recordingmode vector(packetBytes)
attr source packetDropReasonIsNoCarrier(packetDropped)
attr title "packet drops: no carrier, packetBytes"
vector 4 ZrpTestNetwork.source.wlan[0].mac.dcf.channelAccess.pendingQueue queueLength:vector ETV
attr autoWarmupFilter false
attr interpolationmode sample-hold
attr recordingmode vector
attr source "warmup(atomic(constant0(packetPushEnded) + count(packetPushStarted) - count(packetPulled) - count(packetRemoved) - count(packetDropped)))"
attr title "queue length"
attr unit pk
vector 5 ZrpTestNetwork.source.wlan[0].mac.dcf.channelAccess.pendingQueue queueBitLength:vector ETV
attr autoWarmupFilter false
attr interpolationmode sample-hold
attr recordingmode vector
attr source "warmup(atomic(constant0(packetPushEnded) + sum(packetLength(packetPushStarted)) - sum(packetLength(packetPulled)) - sum(packetLength(packetRemoved)) - sum(packetLength(packetDropped))))"
attr title "queue bit length"
attr unit b
vector 6 ZrpTestNetwork.source.wlan[0].mac.dcf.channelAccess.pendingQueue queueingTime:vector ETV
attr interpolationmode none
attr recordingmode vector
attr source queueingTime(packetPulled)
attr title "queueing times"
attr unit s
vector 7 ZrpTestNetwork.source.wlan[0].mac.dcf.channelAccess.pendingQueue incomingPacketLengths:vector ETV
attr interpolationmode none
attr recordingmode vector
attr source packetLength(packetPushStarted)
attr title "incoming packet lengths"
attr unit b
vector 8 ZrpTestNetwork.source.wlan[0].mac.dcf.channelAccess.pendingQueue incomingDataRate:vector ETV
attr interpolationmode linear
attr recordingmode vector
attr source throughput(packetPushStarted)
attr title "incoming datarate"
attr unit bps
vector 9 ZrpTestNetwork.source.wlan[0].mac.dcf.channelAccess.pendingQueue outgoingPacketLengths:vector ETV
attr interpolationmode none
attr recordingmode vector
attr source packetLength(packetPulled)
attr title "outgoing packet lengths"
attr unit b
vector 10 ZrpTestNetwork.source.wlan[0].mac.dcf.channelAccess.pendingQueue outgoingDataRate:vector ETV
attr interpolationmode linear
attr recordingmode vector
attr source throughput(packetPulled)
attr title "outgoing datarate"
attr unit bps
vector 11 ZrpTestNetwork.source.wlan[0].mac.dcf.channelAccess.pendingQueue droppedPacketLengthsQueueOverflow:vector ETV
attr interpolationmode none
attr recordingmode vector
attr source packetLength(packetDropReasonIsQueueOverflow(packetDropped))
attr title "dropped packet lengths: queue overflow"
attr unit b
vector 12 ZrpTestNetwork.source.wlan[0].mac.dcf.channelAccess.pendingQueue flowQueueingTime:vector ETV
attr interpolationmode none
attr recordingmode vector
attr source queueingTime(demuxFlow(packetPulled))
attr title "flow queueing times"
attr unit s
vector 13 ZrpTestNetwork.source.wlan[0].mac.dcf.channelAccess.pendingQueue flowIncomingDataRate:vector ETV
attr interpolationmode linear
attr recordingmode vector
attr source throughput(flowPacketLength(demuxFlow(packetPushStarted)))
attr title "flow specific incoming data rate"
attr unit bps
vector 14 ZrpTestNetwork.source.wlan[0].mac.dcf.channelAccess.pendingQueue flowOutgoingDataRate:vector ETV
attr interpolationmode linear
attr recordingmode vector
attr source throughput(flowPacketLength(demuxFlow(packetPulled)))
attr title "flow specific outgoing data rate"
attr unit bps
vector 15 ZrpTestNetwork.source.wlan[0].mac.dcf.channelAccess.inProgressFrames queueingTime:vector ETV
attr interpolationmode none
attr recordingmode vector
attr source queueingTime(packetDequeued)
attr title "queueing times"
vector 16 ZrpTestNetwork.source.wlan[0].mac.dcf.channelAccess.inProgressFrames queueLength:vector ETV
attr autoWarmupFilter false
attr interpolationmode sample-hold
attr recordingmode vector
attr source "warmup(count(packetEnqueued) - count(packetDequeued))"
attr title "queue length"
vector 17 ZrpTestNetwork.source.wlan[0].mac.dcf.channelAccess.contention backoffPeriodGenerated:vector ETV
attr interpolationmode none
attr recordingmode vector
attr title "backoff periods"
vector 18 ZrpTestNetwork.source.wlan[0].mac.dcf.channelAccess.contention backoffActive:vector ETV
attr autoWarmupFilter false
attr interpolationmode sample-hold
attr recordingmode vector
attr source warmup(count(backoffStarted)-count(backoffStopped))
attr title "backoff active"
vector 19 ZrpTestNetwork.source.wlan[0].mac.dcf.channelAccess.contention stateChanged:vector ETV
attr enum IDLE,DEFER,IFS_AND_BACKOFF
attr interpolationmode none
attr recordingmode vector
attr title "contention state changed"
attr type enum
vector 20 ZrpTestNetwork.source.wlan[0].mac.dcf.recipientMacDataService packetDropDuplicateDetected:vector(packetBytes) ETV
attr interpolationmode none
attr recordingmode vector(packetBytes)
attr source packetDropReasonIsDuplicateDetected(packetDropped)
attr title "packet drops: duplicate detected, packetBytes"
vector 21 ZrpTestNetwork.source.wlan[0].mac.dcf.recoveryProcedure contentionWindowChanged:vector ETV
attr interpolationmode sample-hold
attr recordingmode vector
attr title "contention window"
vector 22 ZrpTestNetwork.source.wlan[0].mac.dcf packetSentToPeer:vector(packetBytes) ETV
attr interpolationmode none
attr recordingmode vector(packetBytes)
attr title "packets sent, packetBytes"
vector 23 ZrpTestNetwork.source.wlan[0].mac.dcf packetSentToPeerUnicast:vector(packetBytes) ETV
attr interpolationmode none
attr recordingmode vector(packetBytes)
attr source ieee80211Unicast(packetSentToPeer)
attr title "packets sent: unicast, packetBytes"
vector 24 ZrpTestNetwork.source.wlan[0].mac.dcf packetSentToPeerMulticast:vector(packetBytes) ETV
attr interpolationmode none
attr recordingmode vector(packetBytes)
attr source ieee80211Multicast(packetSentToPeer)
attr title "packets sent: multicast, packetBytes"
vector 25 ZrpTestNetwork.source.wlan[0].mac.dcf packetSentToPeerBroadcast:vector(packetBytes) ETV
attr interpolationmode none
attr recordingmode vector(packetBytes)
attr source ieee80211Broadcast(packetSentToPeer)
attr title "packets sent: broadcast , packetBytes"
vector 26 ZrpTestNetwork.source.wlan[0].mac.dcf packetSentToPeerWithRetry:vector(packetBytes) ETV
attr interpolationmode none
attr recordingmode vector(packetBytes)
attr source ieee80211Retry(packetSentToPeer)
attr title "packets sent: with retry, packetBytes"
vector 27 ZrpTestNetwork.source.wlan[0].mac.dcf packetSentToPeerWithoutRetry:vector(packetBytes) ETV
attr interpolationmode none
attr recordingmode vector(packetBytes)
attr source ieee80211NotRetry(packetSentToPeer)
attr title "packets sent: without retry, packetBytes"
vector 28 ZrpTestNetwork.source.wlan[0].mac.dcf packetReceivedFromPeer:vector(packetBytes) ETV
attr interpolationmode none
attr recordingmode vector(packetBytes)
attr title "packets received, packetBytes"
vector 29 ZrpTestNetwork.source.wlan[0].mac.dcf packetReceivedFromPeerUnicast:vector(packetBytes) ETV
attr interpolationmode none
attr recordingmode vector(packetBytes)
attr source ieee80211Unicast(packetReceivedFromPeer)
attr title "packets received: unicast, packetBytes"
vector 30 ZrpTestNetwork.source.wlan[0].mac.dcf packetReceivedFromPeerMulticast:vector(packetBytes) ETV
attr interpolationmode none
attr recordingmode vector(packetBytes)
attr source ieee80211Multicast(packetReceivedFromPeer)
attr title "packets received: multicast, packetBytes"
vector 31 ZrpTestNetwork.source.wlan[0].mac.dcf packetReceivedFromPeerBroadcast:vector(packetBytes) ETV
attr interpolationmode none
attr recordingmode vector(packetBytes)
attr source ieee80211Broadcast(packetReceivedFromPeer)
attr title "packets received: broadcast, packetBytes"
vector 32 ZrpTestNetwork.source.wlan[0].mac.dcf packetReceivedFromPeerWithRetry:vector(packetBytes) ETV
attr interpolationmode none
attr recordingmode vector(packetBytes)
attr source ieee80211Retry(packetReceivedFromPeer)
attr title "packets received: with retry, packetBytes"
vector 33 ZrpTestNetwork.source.wlan[0].mac.dcf packetReceivedFromPeerWithoutRetry:vector(packetBytes) ETV
attr interpolationmode none
attr recordingmode vector(packetBytes)
attr source ieee80211NotRetry(packetReceivedFromPeer)
attr title "packets received: without retry, packetBytes"
vector 34 ZrpTestNetwork.source.wlan[0].mac.dcf packetDrop:vector(packetBytes) ETV
attr interpolationmode none
attr recordingmode vector(packetBytes)
attr source packetDropped
attr title "packet drops, packetBytes"
vector 35 ZrpTestNetwork.source.wlan[0].mac.dcf packetDropNotAddressedToUs:vector(packetBytes) ETV
attr interpolationmode none
attr recordingmode vector(packetBytes)
attr source packetDropReasonIsNotAddressedToUs(packetDropped)
attr title "packet drops: not addressed to us, packetBytes"
vector 36 ZrpTestNetwork.source.wlan[0].mac.dcf packetDropQueueOverflow:vector(packetBytes) ETV
attr interpolationmode none
attr recordingmode vector(packetBytes)
attr source packetDropReasonIsQueueOverflow(packetDropped)
attr title "packet drops: queue overflow, packetBytes"
vector 37 ZrpTestNetwork.source.wlan[0].mac.dcf packetDropRetryLimitReached:vector(packetBytes) ETV
attr interpolationmode none
attr recordingmode vector(packetBytes)
attr source packetDropReasonIsRetryLimitReached(packetDropped)
attr title "packet drops: retry limit reached, packetBytes"
vector 38 ZrpTestNetwork.source.wlan[0].mac.dcf frameSequenceActive:vector ETV
attr autoWarmupFilter false
attr interpolationmode sample-hold
attr recordingmode vector
attr source warmup(count(frameSequenceStarted)-count(frameSequenceFinished))
attr title "frame sequence active"
vector 39 ZrpTestNetwork.source.wlan[0].mac.dcf datarateSelected:vector ETV
attr interpolationmode none
attr recordingmode vector
attr title "datarates selected"
vector 40 ZrpTestNetwork.source.wlan[0].mac.rx nav:vector ETV
attr interpolationmode linear
attr recordingmode vector
attr source navChanged
attr title "network allocation vector"
vector 41 ZrpTestNetwork.source.wlan[0].mac packetSentToUpper:vector(packetBytes) ETV
attr interpolationmode none
attr recordingmode vector(packetBytes)
attr title "packets sent to upper layer, packetBytes"
vector 42 ZrpTestNetwork.source.wlan[0].mac packetSentToLower:vector(packetBytes) ETV
attr interpolationmode none
attr recordingmode vector(packetBytes)
attr title "packets sent to lower layer, packetBytes"
vector 43 ZrpTestNetwork.source.wlan[0].mac packetReceivedFromUpper:vector(packetBytes) ETV
attr interpolationmode none
attr recordingmode vector(packetBytes)
attr title "packets received from upper layer, packetBytes"
vector 44 ZrpTestNetwork.source.wlan[0].mac packetReceivedFromLower:vector(packetBytes) ETV
attr interpolationmode none
attr recordingmode vector(packetBytes)
attr title "packets received from lower layer, packetBytes"
vector 45 ZrpTestNetwork.source.wlan[0].mac packetDrop:vector(packetBytes) ETV
attr interpolationmode none
attr recordingmode vector(packetBytes)
attr source packetDropped
attr title "packet drops, packetBytes"
vector 46 ZrpTestNetwork.source.wlan[0].mac packetDropIncorrectlyReceived:vector(packetBytes) ETV
attr interpolationmode none
attr recordingmode vector(packetBytes)
attr source packetDropReasonIsIncorrectlyReceived(packetDropped)
attr title "packet drops: incorrectly received, packetBytes"
vector 47 ZrpTestNetwork.source.wlan[0].mac packetDropNotAddressedToUs:vector(packetBytes) ETV
attr interpolationmode none
attr recordingmode vector(packetBytes)
attr source packetDropReasonIsNotAddressedToUs(packetDropped)
attr title "packet drops: not addressed to us, packetBytes"
vector 48 ZrpTestNetwork.source.wlan[0].mac packetDropQueueOverflow:vector(packetBytes) ETV
attr interpolationmode none
attr recordingmode vector(packetBytes)
attr source packetDropReasonIsQueueOverflow(packetDropped)
attr title "packet drops: queue overflow, packetBytes"
vector 49 ZrpTestNetwork.source.wlan[0].mac packetDropRetryLimitReached:vector(packetBytes) ETV
attr interpolationmode none
attr recordingmode vector(packetBytes)
attr source packetDropReasonIsRetryLimitReached(packetDropped)
attr title "packet drops: retry limit reached, packetBytes"
vector 50 ZrpTestNetwork.source.wlan[0].mac packetDropDuplicateDetected:vector(packetBytes) ETV
attr interpolationmode none
attr recordingmode vector(packetBytes)
attr source packetDropReasonIsDuplicateDetected(packetDropped)
attr title "packet drops: duplicate detected, packetBytes"
vector 51 ZrpTestNetwork.source.wlan[0].mac packetDropOther:vector(packetBytes) ETV
attr interpolationmode none
attr recordingmode vector(packetBytes)
attr source packetDropReasonIsOther(packetDropped)
attr title "packet drops: other, packetBytes"
vector 52 ZrpTestNetwork.source.wlan[0].radio radioMode:vector ETV
attr interpolationmode sample-hold
attr recordingmode vector
attr source radioModeChanged
attr title "Radio mode"
vector 53 ZrpTestNetwork.source.wlan[0].radio receptionState:vector ETV
attr interpolationmode sample-hold
attr recordingmode vector
attr source receptionStateChanged
attr title "Radio reception state"
vector 54 ZrpTestNetwork.source.wlan[0].radio transmissionState:vector ETV
attr interpolationmode sample-hold
attr recordingmode vector
attr source transmissionStateChanged
attr title "Radio transmission state"
vector 55 ZrpTestNetwork.source.wlan[0].radio radioChannel:vector ETV
attr interpolationmode sample-hold
attr recordingmode vector
attr source radioChannelChanged
attr title "Radio channel"
vector 56 ZrpTestNetwork.source.wlan[0] packetDropInterfaceDown:vector(packetBytes) ETV
attr interpolationmode none
attr recordingmode vector(packetBytes)
attr source packetDropReasonIsInterfaceDown(packetDropped)
attr title "packet drops: interface down, packetBytes"
vector 57 ZrpTestNetwork.source.wlan[0] packetDropNoCarrier:vector(packetBytes) ETV
attr interpolationmode none
attr recordingmode vector(packetBytes)
attr source packetDropReasonIsNoCarrier(packetDropped)
attr title "packet drops: no carrier, packetBytes"
vector 58 ZrpTestNetwork.source.ipv4.ip packetDropAddressResolutionFailed:vector(packetBytes) ETV
attr interpolationmode none
attr recordingmode vector(packetBytes)
attr source packetDropReasonIsAddressResolutionFailed(packetDropped)
attr title "packet drop: address resolution failed, packetBytes"
vector 59 ZrpTestNetwork.source.ipv4.ip packetDropHopLimitReached:vector(packetBytes) ETV
attr interpolationmode none
attr recordingmode vector(packetBytes)
attr source packetDropReasonIsHopLimitReached(packetDropped)
attr title "packet drop: hop limit reached, packetBytes"
vector 60 ZrpTestNetwork.source.ipv4.ip packetDropForwardingDisabled:vector(packetBytes) ETV
attr interpolationmode none
attr recordingmode vector(packetBytes)
attr source packetDropReasonIsForwardingDisabled(packetDropped)
attr title "packet drop: forwarding disabled, packetBytes"
vector 61 ZrpTestNetwork.source.ipv4.ip packetDropNoInterfaceFound:vector(packetBytes) ETV
attr interpolationmode none
attr recordingmode vector(packetBytes)
attr source packetDropReasonIsNoInterfaceFound(packetDropped)
attr title "packet drop: no interface found, packetBytes"
vector 62 ZrpTestNetwork.source.ipv4.ip packetDropNoRouteFound:vector(packetBytes) ETV
attr interpolationmode none
attr recordingmode vector(packetBytes)
attr source packetDropReasonIsNoRouteFound(packetDropped)
attr title "packet drop: no route found, packetBytes"
vector 63 ZrpTestNetwork.source.ipv4.ip packetDropUndefined:vector(packetBytes) ETV
attr interpolationmode none
attr recordingmode vector(packetBytes)
attr source packetDropReasonIsUndefined(packetDropped)
attr title "packet drop: undefined, packetBytes"
vector 64 ZrpTestNetwork.source.udp packetSent:vector(packetBytes) ETV
attr interpolationmode none
attr recordingmode vector(packetBytes)
attr source packetSent
attr title "packets sent, packetBytes"
vector 65 ZrpTestNetwork.source.udp packetReceived:vector(packetBytes) ETV
attr interpolationmode none
attr recordingmode vector(packetBytes)
attr source packetReceived
attr title "packets received, packetBytes"
vector 66 ZrpTestNetwork.source.udp passedUpPk:vector(count) ETV
attr interpolationmode none
attr recordingmode vector(count)
attr source packetSentToUpper
attr title "packets passed up, count"
vector 67 ZrpTestNetwork.source.udp droppedPkWrongPort:vector(count) ETV
attr interpolationmode none
attr recordingmode vector(count)
attr source packetDropReasonIsNoPortFound(packetDropped)
attr title "packets dropped (wrong port), count"
vector 68 ZrpTestNetwork.source.udp droppedPkBadChecksum:vector(count) ETV
attr interpolationmode none
attr recordingmode vector(count)
attr source packetDropReasonIsIncorrectlyReceived(packetDropped)
attr title "packets dropped (checksum error), count"
vector 69 ZrpTestNetwork.destination.lo[0].lo rcvdPkFromHl:vector(packetBytes) ETV
attr interpolationmode none
attr recordingmode vector(packetBytes)
attr source packetReceivedFromUpper
attr title "packets received from higher layer, packetBytes"
vector 70 ZrpTestNetwork.destination.lo[0].lo passedUpPk:vector(packetBytes) ETV
attr interpolationmode none
attr recordingmode vector(packetBytes)
attr source packetSentToUpper
attr title "packets passed to higher layer, packetBytes"
vector 71 ZrpTestNetwork.destination.lo[0] packetDropInterfaceDown:vector(packetBytes) ETV
attr interpolationmode none
attr recordingmode vector(packetBytes)
attr source packetDropReasonIsInterfaceDown(packetDropped)
attr title "packet drops: interface down, packetBytes"
vector 72 ZrpTestNetwork.destination.lo[0] packetDropNoCarrier:vector(packetBytes) ETV
attr interpolationmode none
attr recordingmode vector(packetBytes)
attr source packetDropReasonIsNoCarrier(packetDropped)
attr title "packet drops: no carrier, packetBytes"
vector 73 ZrpTestNetwork.destination.wlan[0].mac.dcf.channelAccess.pendingQueue queueLength:vector ETV
attr autoWarmupFilter false
attr interpolationmode sample-hold
attr recordingmode vector
attr source "warmup(atomic(constant0(packetPushEnded) + count(packetPushStarted) - count(packetPulled) - count(packetRemoved) - count(packetDropped)))"
attr title "queue length"
attr unit pk
vector 74 ZrpTestNetwork.destination.wlan[0].mac.dcf.channelAccess.pendingQueue queueBitLength:vector ETV
attr autoWarmupFilter false
attr interpolationmode sample-hold
attr recordingmode vector
attr source "warmup(atomic(constant0(packetPushEnded) + sum(packetLength(packetPushStarted)) - sum(packetLength(packetPulled)) - sum(packetLength(packetRemoved)) - sum(packetLength(packetDropped))))"
attr title "queue bit length"
attr unit b
vector 75 ZrpTestNetwork.destination.wlan[0].mac.dcf.channelAccess.pendingQueue queueingTime:vector ETV
attr interpolationmode none
attr recordingmode vector
attr source queueingTime(packetPulled)
attr title "queueing times"
attr unit s
vector 76 ZrpTestNetwork.destination.wlan[0].mac.dcf.channelAccess.pendingQueue incomingPacketLengths:vector ETV
attr interpolationmode none
attr recordingmode vector
attr source packetLength(packetPushStarted)
attr title "incoming packet lengths"
attr unit b
vector 77 ZrpTestNetwork.destination.wlan[0].mac.dcf.channelAccess.pendingQueue incomingDataRate:vector ETV
attr interpolationmode linear
attr recordingmode vector
attr source throughput(packetPushStarted)
attr title "incoming datarate"
attr unit bps
vector 78 ZrpTestNetwork.destination.wlan[0].mac.dcf.channelAccess.pendingQueue outgoingPacketLengths:vector ETV
attr interpolationmode none
attr recordingmode vector
attr source packetLength(packetPulled)
attr title "outgoing packet lengths"
attr unit b
vector 79 ZrpTestNetwork.destination.wlan[0].mac.dcf.channelAccess.pendingQueue outgoingDataRate:vector ETV
attr interpolationmode linear
attr recordingmode vector
attr source throughput(packetPulled)
attr title "outgoing datarate"
attr unit bps
vector 80 ZrpTestNetwork.destination.wlan[0].mac.dcf.channelAccess.pendingQueue droppedPacketLengthsQueueOverflow:vector ETV
attr interpolationmode none
attr recordingmode vector
attr source packetLength(packetDropReasonIsQueueOverflow(packetDropped))
attr title "dropped packet lengths: queue overflow"
attr unit b
vector 81 ZrpTestNetwork.destination.wlan[0].mac.dcf.channelAccess.pendingQueue flowQueueingTime:vector ETV
attr interpolationmode none
attr recordingmode vector
attr source queueingTime(demuxFlow(packetPulled))
attr title "flow queueing times"
attr unit s
vector 82 ZrpTestNetwork.destination.wlan[0].mac.dcf.channelAccess.pendingQueue flowIncomingDataRate:vector ETV
attr interpolationmode linear
attr recordingmode vector
attr source throughput(flowPacketLength(demuxFlow(packetPushStarted)))
attr title "flow specific incoming data rate"
attr unit bps
vector 83 ZrpTestNetwork.destination.wlan[0].mac.dcf.channelAccess.pendingQueue flowOutgoingDataRate:vector ETV
attr interpolationmode linear
attr recordingmode vector
attr source throughput(flowPacketLength(demuxFlow(packetPulled)))
attr title "flow specific outgoing data rate"
attr unit bps
vector 84 ZrpTestNetwork.destination.wlan[0].mac.dcf.channelAccess.inProgressFrames queueingTime:vector ETV
attr interpolationmode none
attr recordingmode vector
attr source queueingTime(packetDequeued)
attr title "queueing times"
vector 85 ZrpTestNetwork.destination.wlan[0].mac.dcf.channelAccess.inProgressFrames queueLength:vector ETV
attr autoWarmupFilter false
attr interpolationmode sample-hold
attr recordingmode vector
attr source "warmup(count(packetEnqueued) - count(packetDequeued))"
attr title "queue length"
vector 86 ZrpTestNetwork.destination.wlan[0].mac.dcf.channelAccess.contention backoffPeriodGenerated:vector ETV
attr interpolationmode none
attr recordingmode vector
attr title "backoff periods"
vector 87 ZrpTestNetwork.destination.wlan[0].mac.dcf.channelAccess.contention backoffActive:vector ETV
attr autoWarmupFilter false
attr interpolationmode sample-hold
attr recordingmode vector
attr source warmup(count(backoffStarted)-count(backoffStopped))
attr title "backoff active"
vector 88 ZrpTestNetwork.destination.wlan[0].mac.dcf.channelAccess.contention stateChanged:vector ETV
attr enum IDLE,DEFER,IFS_AND_BACKOFF
attr interpolationmode none
attr recordingmode vector
attr title "contention state changed"
attr type enum
vector 89 ZrpTestNetwork.destination.wlan[0].mac.dcf.recipientMacDataService packetDropDuplicateDetected:vector(packetBytes) ETV
attr interpolationmode none
attr recordingmode vector(packetBytes)
attr source packetDropReasonIsDuplicateDetected(packetDropped)
attr title "packet drops: duplicate detected, packetBytes"
vector 90 ZrpTestNetwork.destination.wlan[0].mac.dcf.recoveryProcedure contentionWindowChanged:vector ETV
attr interpolationmode sample-hold
attr recordingmode vector
attr title "contention window"
vector 91 ZrpTestNetwork.destination.wlan[0].mac.dcf packetSentToPeer:vector(packetBytes) ETV
attr interpolationmode none
attr recordingmode vector(packetBytes)
attr title "packets sent, packetBytes"
vector 92 ZrpTestNetwork.destination.wlan[0].mac.dcf packetSentToPeerUnicast:vector(packetBytes) ETV
attr interpolationmode none
attr recordingmode vector(packetBytes)
attr source ieee80211Unicast(packetSentToPeer)
attr title "packets sent: unicast, packetBytes"
vector 93 ZrpTestNetwork.destination.wlan[0].mac.dcf packetSentToPeerMulticast:vector(packetBytes) ETV
attr interpolationmode none
attr recordingmode vector(packetBytes)
attr source ieee80211Multicast(packetSentToPeer)
attr title "packets sent: multicast, packetBytes"
vector 94 ZrpTestNetwork.destination.wlan[0].mac.dcf packetSentToPeerBroadcast:vector(packetBytes) ETV
attr interpolationmode none
attr recordingmode vector(packetBytes)
attr source ieee80211Broadcast(packetSentToPeer)
attr title "packets sent: broadcast , packetBytes"
vector 95 ZrpTestNetwork.destination.wlan[0].mac.dcf packetSentToPeerWithRetry:vector(packetBytes) ETV
attr interpolationmode none
attr recordingmode vector(packetBytes)
attr source ieee80211Retry(packetSentToPeer)
attr title "packets sent: with retry, packetBytes"
vector 96 ZrpTestNetwork.destination.wlan[0].mac.dcf packetSentToPeerWithoutRetry:vector(packetBytes) ETV
attr interpolationmode none
attr recordingmode vector(packetBytes)
attr source ieee80211NotRetry(packetSentToPeer)
attr title "packets sent: without retry, packetBytes"
vector 97 ZrpTestNetwork.destination.wlan[0].mac.dcf packetReceivedFromPeer:vector(packetBytes) ETV
attr interpolationmode none
attr recordingmode vector(packetBytes)
attr title "packets received, packetBytes"
vector 98 ZrpTestNetwork.destination.wlan[0].mac.dcf packetReceivedFromPeerUnicast:vector(packetBytes) ETV
attr interpolationmode none
attr recordingmode vector(packetBytes)
attr source ieee80211Unicast(packetReceivedFromPeer)
attr title "packets received: unicast, packetBytes"
vector 99 ZrpTestNetwork.destination.wlan[0].mac.dcf packetReceivedFromPeerMulticast:vector(packetBytes) ETV
attr interpolationmode none
attr recordingmode vector(packetBytes)
attr source ieee80211Multicast(packetReceivedFromPeer)
attr title "packets received: multicast, packetBytes"
vector 100 ZrpTestNetwork.destination.wlan[0].mac.dcf packetReceivedFromPeerBroadcast:vector(packetBytes) ETV
attr interpolationmode none
attr recordingmode vector(packetBytes)
attr source ieee80211Broadcast(packetReceivedFromPeer)
attr title "packets received: broadcast, packetBytes"
vector 101 ZrpTestNetwork.destination.wlan[0].mac.dcf packetReceivedFromPeerWithRetry:vector(packetBytes) ETV
attr interpolationmode none
attr recordingmode vector(packetBytes)
attr source ieee80211Retry(packetReceivedFromPeer)
attr title "packets received: with retry, packetBytes"
vector 102 ZrpTestNetwork.destination.wlan[0].mac.dcf packetReceivedFromPeerWithoutRetry:vector(packetBytes) ETV
attr interpolationmode none
attr recordingmode vector(packetBytes)
attr source ieee80211NotRetry(packetReceivedFromPeer)
attr title "packets received: without retry, packetBytes"
vector 103 ZrpTestNetwork.destination.wlan[0].mac.dcf packetDrop:vector(packetBytes) ETV
attr interpolationmode none
attr recordingmode vector(packetBytes)
attr source packetDropped
attr title "packet drops, packetBytes"
vector 104 ZrpTestNetwork.destination.wlan[0].mac.dcf packetDropNotAddressedToUs:vector(packetBytes) ETV
attr interpolationmode none
attr recordingmode vector(packetBytes)
attr source packetDropReasonIsNotAddressedToUs(packetDropped)
attr title "packet drops: not addressed to us, packetBytes"
vector 105 ZrpTestNetwork.destination.wlan[0].mac.dcf packetDropQueueOverflow:vector(packetBytes) ETV
attr interpolationmode none
attr recordingmode vector(packetBytes)
attr source packetDropReasonIsQueueOverflow(packetDropped)
attr title "packet drops: queue overflow, packetBytes"
vector 106 ZrpTestNetwork.destination.wlan[0].mac.dcf packetDropRetryLimitReached:vector(packetBytes) ETV
attr interpolationmode none
attr recordingmode vector(packetBytes)
attr source packetDropReasonIsRetryLimitReached(packetDropped)
attr title "packet drops: retry limit reached, packetBytes"
vector 107 ZrpTestNetwork.destination.wlan[0].mac.dcf frameSequenceActive:vector ETV
attr autoWarmupFilter false
attr interpolationmode sample-hold
attr recordingmode vector
attr source warmup(count(frameSequenceStarted)-count(frameSequenceFinished))
attr title "frame sequence active"
vector 108 ZrpTestNetwork.destination.wlan[0].mac.dcf datarateSelected:vector ETV
attr interpolationmode none
attr recordingmode vector
attr title "datarates selected"
vector 109 ZrpTestNetwork.destination.wlan[0].mac.rx nav:vector ETV
attr interpolationmode linear
attr recordingmode vector
attr source navChanged
attr title "network allocation vector"
vector 110 ZrpTestNetwork.destination.wlan[0].mac packetSentToUpper:vector(packetBytes) ETV
attr interpolationmode none
attr recordingmode vector(packetBytes)
attr title "packets sent to upper layer, packetBytes"
vector 111 ZrpTestNetwork.destination.wlan[0].mac packetSentToLower:vector(packetBytes) ETV
attr interpolationmode none
attr recordingmode vector(packetBytes)
attr title "packets sent to lower layer, packetBytes"
vector 112 ZrpTestNetwork.destination.wlan[0].mac packetReceivedFromUpper:vector(packetBytes) ETV
attr interpolationmode none
attr recordingmode vector(packetBytes)
attr title "packets received from upper layer, packetBytes"
vector 113 ZrpTestNetwork.destination.wlan[0].mac packetReceivedFromLower:vector(packetBytes) ETV
attr interpolationmode none
attr recordingmode vector(packetBytes)
attr title "packets received from lower layer, packetBytes"
vector 114 ZrpTestNetwork.destination.wlan[0].mac packetDrop:vector(packetBytes) ETV
attr interpolationmode none
attr recordingmode vector(packetBytes)
attr source packetDropped
attr title "packet drops, packetBytes"
vector 115 ZrpTestNetwork.destination.wlan[0].mac packetDropIncorrectlyReceived:vector(packetBytes) ETV
attr interpolationmode none
attr recordingmode vector(packetBytes)
attr source packetDropReasonIsIncorrectlyReceived(packetDropped)
attr title "packet drops: incorrectly received, packetBytes"
vector 116 ZrpTestNetwork.destination.wlan[0].mac packetDropNotAddressedToUs:vector(packetBytes) ETV
attr interpolationmode none
attr recordingmode vector(packetBytes)
attr source packetDropReasonIsNotAddressedToUs(packetDropped)
attr title "packet drops: not addressed to us, packetBytes"
vector 117 ZrpTestNetwork.destination.wlan[0].mac packetDropQueueOverflow:vector(packetBytes) ETV
attr interpolationmode none
attr recordingmode vector(packetBytes)
attr source packetDropReasonIsQueueOverflow(packetDropped)
attr title "packet drops: queue overflow, packetBytes"
vector 118 ZrpTestNetwork.destination.wlan[0].mac packetDropRetryLimitReached:vector(packetBytes) ETV
attr interpolationmode none
attr recordingmode vector(packetBytes)
attr source packetDropReasonIsRetryLimitReached(packetDropped)
attr title "packet drops: retry limit reached, packetBytes"
vector 119 ZrpTestNetwork.destination.wlan[0].mac packetDropDuplicateDetected:vector(packetBytes) ETV
attr interpolationmode none
attr recordingmode vector(packetBytes)
attr source packetDropReasonIsDuplicateDetected(packetDropped)
attr title "packet drops: duplicate detected, packetBytes"
vector 120 ZrpTestNetwork.destination.wlan[0].mac packetDropOther:vector(packetBytes) ETV
attr interpolationmode none
attr recordingmode vector(packetBytes)
attr source packetDropReasonIsOther(packetDropped)
attr title "packet drops: other, packetBytes"
vector 121 ZrpTestNetwork.destination.wlan[0].radio radioMode:vector ETV
attr interpolationmode sample-hold
attr recordingmode vector
attr source radioModeChanged
attr title "Radio mode"
vector 122 ZrpTestNetwork.destination.wlan[0].radio receptionState:vector ETV
attr interpolationmode sample-hold
attr recordingmode vector
attr source receptionStateChanged
attr title "Radio reception state"
vector 123 ZrpTestNetwork.destination.wlan[0].radio transmissionState:vector ETV
attr interpolationmode sample-hold
attr recordingmode vector
attr source transmissionStateChanged
attr title "Radio transmission state"
vector 124 ZrpTestNetwork.destination.wlan[0].radio radioChannel:vector ETV
attr interpolationmode sample-hold
attr recordingmode vector
attr source radioChannelChanged
attr title "Radio channel"
vector 125 ZrpTestNetwork.destination.wlan[0] packetDropInterfaceDown:vector(packetBytes) ETV
attr interpolationmode none
attr recordingmode vector(packetBytes)
attr source packetDropReasonIsInterfaceDown(packetDropped)
attr title "packet drops: interface down, packetBytes"
vector 126 ZrpTestNetwork.destination.wlan[0] packetDropNoCarrier:vector(packetBytes) ETV
attr interpolationmode none
attr recordingmode vector(packetBytes)
attr source packetDropReasonIsNoCarrier(packetDropped)
attr title "packet drops: no carrier, packetBytes"
vector 127 ZrpTestNetwork.destination.ipv4.ip packetDropAddressResolutionFailed:vector(packetBytes) ETV
attr interpolationmode none
attr recordingmode vector(packetBytes)
attr source packetDropReasonIsAddressResolutionFailed(packetDropped)
attr title "packet drop: address resolution failed, packetBytes"
vector 128 ZrpTestNetwork.destination.ipv4.ip packetDropHopLimitReached:vector(packetBytes) ETV
attr interpolationmode none
attr recordingmode vector(packetBytes)
attr source packetDropReasonIsHopLimitReached(packetDropped)
attr title "packet drop: hop limit reached, packetBytes"
vector 129 ZrpTestNetwork.destination.ipv4.ip packetDropForwardingDisabled:vector(packetBytes) ETV
attr interpolationmode none
attr recordingmode vector(packetBytes)
attr source packetDropReasonIsForwardingDisabled(packetDropped)
attr title "packet drop: forwarding disabled, packetBytes"
vector 130 ZrpTestNetwork.destination.ipv4.ip packetDropNoInterfaceFound:vector(packetBytes) ETV
attr interpolationmode none
attr recordingmode vector(packetBytes)
attr source packetDropReasonIsNoInterfaceFound(packetDropped)
attr title "packet drop: no interface found, packetBytes"
vector 131 ZrpTestNetwork.destination.ipv4.ip packetDropNoRouteFound:vector(packetBytes) ETV
attr interpolationmode none
attr recordingmode vector(packetBytes)
attr source packetDropReasonIsNoRouteFound(packetDropped)
attr title "packet drop: no route found, packetBytes"
vector 132 ZrpTestNetwork.destination.ipv4.ip packetDropUndefined:vector(packetBytes) ETV
attr interpolationmode none
attr recordingmode vector(packetBytes)
attr source packetDropReasonIsUndefined(packetDropped)
attr title "packet drop: undefined, packetBytes"
vector 133 ZrpTestNetwork.destination.udp packetSent:vector(packetBytes) ETV
attr interpolationmode none
attr recordingmode vector(packetBytes)
attr source packetSent
attr title "packets sent, packetBytes"
vector 134 ZrpTestNetwork.destination.udp packetReceived:vector(packetBytes) ETV
attr interpolationmode none
attr recordingmode vector(packetBytes)
attr source packetReceived
attr title "packets received, packetBytes"
vector 135 ZrpTestNetwork.destination.udp passedUpPk:vector(count) ETV
attr interpolationmode none
attr recordingmode vector(count)
attr source packetSentToUpper
attr title "packets passed up, count"
vector 136 ZrpTestNetwork.destination.udp droppedPkWrongPort:vector(count) ETV
attr interpolationmode none
attr recordingmode vector(count)
attr source packetDropReasonIsNoPortFound(packetDropped)
attr title "packets dropped (wrong port), count"
vector 137 ZrpTestNetwork.destination.udp droppedPkBadChecksum:vector(count) ETV
attr interpolationmode none
attr recordingmode vector(count)
attr source packetDropReasonIsIncorrectlyReceived(packetDropped)
attr title "packets dropped (checksum error), count"
vector 138 ZrpTestNetwork.node1.lo[0].lo rcvdPkFromHl:vector(packetBytes) ETV
attr interpolationmode none
attr recordingmode vector(packetBytes)
attr source packetReceivedFromUpper
attr title "packets received from higher layer, packetBytes"
vector 139 ZrpTestNetwork.node1.lo[0].lo passedUpPk:vector(packetBytes) ETV
attr interpolationmode none
attr recordingmode vector(packetBytes)
attr source packetSentToUpper
attr title "packets passed to higher layer, packetBytes"
vector 140 ZrpTestNetwork.node1.lo[0] packetDropInterfaceDown:vector(packetBytes) ETV
attr interpolationmode none
attr recordingmode vector(packetBytes)
attr source packetDropReasonIsInterfaceDown(packetDropped)
attr title "packet drops: interface down, packetBytes"
vector 141 ZrpTestNetwork.node1.lo[0] packetDropNoCarrier:vector(packetBytes) ETV
attr interpolationmode none
attr recordingmode vector(packetBytes)
attr source packetDropReasonIsNoCarrier(packetDropped)
attr title "packet drops: no carrier, packetBytes"
vector 142 ZrpTestNetwork.node1.wlan[0].mac.dcf.channelAccess.pendingQueue queueLength:vector ETV
attr autoWarmupFilter false
attr interpolationmode sample-hold
attr recordingmode vector
attr source "warmup(atomic(constant0(packetPushEnded) + count(packetPushStarted) - count(packetPulled) - count(packetRemoved) - count(packetDropped)))"
attr title "queue length"
attr unit pk
vector 143 ZrpTestNetwork.node1.wlan[0].mac.dcf.channelAccess.pendingQueue queueBitLength:vector ETV
attr autoWarmupFilter false
attr interpolationmode sample-hold
attr recordingmode vector
attr source "warmup(atomic(constant0(packetPushEnded) + sum(packetLength(packetPushStarted)) - sum(packetLength(packetPulled)) - sum(packetLength(packetRemoved)) - sum(packetLength(packetDropped))))"
attr title "queue bit length"
attr unit b
vector 144 ZrpTestNetwork.node1.wlan[0].mac.dcf.channelAccess.pendingQueue queueingTime:vector ETV
attr interpolationmode none
attr recordingmode vector
attr source queueingTime(packetPulled)
attr title "queueing times"
attr unit s
vector 145 ZrpTestNetwork.node1.wlan[0].mac.dcf.channelAccess.pendingQueue incomingPacketLengths:vector ETV
attr interpolationmode none
attr recordingmode vector
attr source packetLength(packetPushStarted)
attr title "incoming packet lengths"
attr unit b
vector 146 ZrpTestNetwork.node1.wlan[0].mac.dcf.channelAccess.pendingQueue incomingDataRate:vector ETV
attr interpolationmode linear
attr recordingmode vector
attr source throughput(packetPushStarted)
attr title "incoming datarate"
attr unit bps
vector 147 ZrpTestNetwork.node1.wlan[0].mac.dcf.channelAccess.pendingQueue outgoingPacketLengths:vector ETV
attr interpolationmode none
attr recordingmode vector
attr source packetLength(packetPulled)
attr title "outgoing packet lengths"
attr unit b
vector 148 ZrpTestNetwork.node1.wlan[0].mac.dcf.channelAccess.pendingQueue outgoingDataRate:vector ETV
attr interpolationmode linear
attr recordingmode vector
attr source throughput(packetPulled)
attr title "outgoing datarate"
attr unit bps
vector 149 ZrpTestNetwork.node1.wlan[0].mac.dcf.channelAccess.pendingQueue droppedPacketLengthsQueueOverflow:vector ETV
attr interpolationmode none
attr recordingmode vector
attr source packetLength(packetDropReasonIsQueueOverflow(packetDropped))
attr title "dropped packet lengths: queue overflow"
attr unit b
vector 150 ZrpTestNetwork.node1.wlan[0].mac.dcf.channelAccess.pendingQueue flowQueueingTime:vector ETV
attr interpolationmode none
attr recordingmode vector
attr source queueingTime(demuxFlow(packetPulled))
attr title "flow queueing times"
attr unit s
vector 151 ZrpTestNetwork.node1.wlan[0].mac.dcf.channelAccess.pendingQueue flowIncomingDataRate:vector ETV
attr interpolationmode linear
attr recordingmode vector
attr source throughput(flowPacketLength(demuxFlow(packetPushStarted)))
attr title "flow specific incoming data rate"
attr unit bps
vector 152 ZrpTestNetwork.node1.wlan[0].mac.dcf.channelAccess.pendingQueue flowOutgoingDataRate:vector ETV
attr interpolationmode linear
attr recordingmode vector
attr source throughput(flowPacketLength(demuxFlow(packetPulled)))
attr title "flow specific outgoing data rate"
attr unit bps
vector 153 ZrpTestNetwork.node1.wlan[0].mac.dcf.channelAccess.inProgressFrames queueingTime:vector ETV
attr interpolationmode none
attr recordingmode vector
attr source queueingTime(packetDequeued)
attr title "queueing times"
vector 154 ZrpTestNetwork.node1.wlan[0].mac.dcf.channelAccess.inProgressFrames queueLength:vector ETV
attr autoWarmupFilter false
attr interpolationmode sample-hold
attr recordingmode vector
attr source "warmup(count(packetEnqueued) - count(packetDequeued))"
attr title "queue length"
vector 155 ZrpTestNetwork.node1.wlan[0].mac.dcf.channelAccess.contention backoffPeriodGenerated:vector ETV
attr interpolationmode none
attr recordingmode vector
attr title "backoff periods"
vector 156 ZrpTestNetwork.node1.wlan[0].mac.dcf.channelAccess.contention backoffActive:vector ETV
attr autoWarmupFilter false
attr interpolationmode sample-hold
attr recordingmode vector
attr source warmup(count(backoffStarted)-count(backoffStopped))
attr title "backoff active"
vector 157 ZrpTestNetwork.node1.wlan[0].mac.dcf.channelAccess.contention stateChanged:vector ETV
attr enum IDLE,DEFER,IFS_AND_BACKOFF
attr interpolationmode none
attr recordingmode vector
attr title "contention state changed"
attr type enum
vector 158 ZrpTestNetwork.node1.wlan[0].mac.dcf.recipientMacDataService packetDropDuplicateDetected:vector(packetBytes) ETV
attr interpolationmode none
attr recordingmode vector(packetBytes)
attr source packetDropReasonIsDuplicateDetected(packetDropped)
attr title "packet drops: duplicate detected, packetBytes"
vector 159 ZrpTestNetwork.node1.wlan[0].mac.dcf.recoveryProcedure contentionWindowChanged:vector ETV
attr interpolationmode sample-hold
attr recordingmode vector
attr title "contention window"
vector 160 ZrpTestNetwork.node1.wlan[0].mac.dcf packetSentToPeer:vector(packetBytes) ETV
attr interpolationmode none
attr recordingmode vector(packetBytes)
attr title "packets sent, packetBytes"
vector 161 ZrpTestNetwork.node1.wlan[0].mac.dcf packetSentToPeerUnicast:vector(packetBytes) ETV
attr interpolationmode none
attr recordingmode vector(packetBytes)
attr source ieee80211Unicast(packetSentToPeer)
attr title "packets sent: unicast, packetBytes"
vector 162 ZrpTestNetwork.node1.wlan[0].mac.dcf packetSentToPeerMulticast:vector(packetBytes) ETV
attr interpolationmode none
attr recordingmode vector(packetBytes)
attr source ieee80211Multicast(packetSentToPeer)
attr title "packets sent: multicast, packetBytes"
vector 163 ZrpTestNetwork.node1.wlan[0].mac.dcf packetSentToPeerBroadcast:vector(packetBytes) ETV
attr interpolationmode none
attr recordingmode vector(packetBytes)
attr source ieee80211Broadcast(packetSentToPeer)
attr title "packets sent: broadcast , packetBytes"
vector 164 ZrpTestNetwork.node1.wlan[0].mac.dcf packetSentToPeerWithRetry:vector(packetBytes) ETV
attr interpolationmode none
attr recordingmode vector(packetBytes)
attr source ieee80211Retry(packetSentToPeer)
attr title "packets sent: with retry, packetBytes"
vector 165 ZrpTestNetwork.node1.wlan[0].mac.dcf packetSentToPeerWithoutRetry:vector(packetBytes) ETV
attr interpolationmode none
attr recordingmode vector(packetBytes)
attr source ieee80211NotRetry(packetSentToPeer)
attr title "packets sent: without retry, packetBytes"
vector 166 ZrpTestNetwork.node1.wlan[0].mac.dcf packetReceivedFromPeer:vector(packetBytes) ETV
attr interpolationmode none
attr recordingmode vector(packetBytes)
attr title "packets received, packetBytes"
vector 167 ZrpTestNetwork.node1.wlan[0].mac.dcf packetReceivedFromPeerUnicast:vector(packetBytes) ETV
attr interpolationmode none
attr recordingmode vector(packetBytes)
attr source ieee80211Unicast(packetReceivedFromPeer)
attr title "packets received: unicast, packetBytes"
vector 168 ZrpTestNetwork.node1.wlan[0].mac.dcf packetReceivedFromPeerMulticast:vector(packetBytes) ETV
attr interpolationmode none
attr recordingmode vector(packetBytes)
attr source ieee80211Multicast(packetReceivedFromPeer)
attr title "packets received: multicast, packetBytes"
vector 169 ZrpTestNetwork.node1.wlan[0].mac.dcf packetReceivedFromPeerBroadcast:vector(packetBytes) ETV
attr interpolationmode none
attr recordingmode vector(packetBytes)
attr source ieee80211Broadcast(packetReceivedFromPeer)
attr title "packets received: broadcast, packetBytes"
vector 170 ZrpTestNetwork.node1.wlan[0].mac.dcf packetReceivedFromPeerWithRetry:vector(packetBytes) ETV
attr interpolationmode none
attr recordingmode vector(packetBytes)
attr source ieee80211Retry(packetReceivedFromPeer)
attr title "packets received: with retry, packetBytes"
vector 171 ZrpTestNetwork.node1.wlan[0].mac.dcf packetReceivedFromPeerWithoutRetry:vector(packetBytes) ETV
attr interpolationmode none
attr recordingmode vector(packetBytes)
attr source ieee80211NotRetry(packetReceivedFromPeer)
attr title "packets received: without retry, packetBytes"
vector 172 ZrpTestNetwork.node1.wlan[0].mac.dcf packetDrop:vector(packetBytes) ETV
attr interpolationmode none
attr recordingmode vector(packetBytes)
attr source packetDropped
attr title "packet drops, packetBytes"
vector 173 ZrpTestNetwork.node1.wlan[0].mac.dcf packetDropNotAddressedToUs:vector(packetBytes) ETV
attr interpolationmode none
attr recordingmode vector(packetBytes)
attr source packetDropReasonIsNotAddressedToUs(packetDropped)
attr title "packet drops: not addressed to us, packetBytes"
vector 174 ZrpTestNetwork.node1.wlan[0].mac.dcf packetDropQueueOverflow:vector(packetBytes) ETV
attr interpolationmode none
attr recordingmode vector(packetBytes)
attr source packetDropReasonIsQueueOverflow(packetDropped)
attr title "packet drops: queue overflow, packetBytes"
vector 175 ZrpTestNetwork.node1.wlan[0].mac.dcf packetDropRetryLimitReached:vector(packetBytes) ETV
attr interpolationmode none
attr recordingmode vector(packetBytes)
attr source packetDropReasonIsRetryLimitReached(packetDropped)
attr title "packet drops: retry limit reached, packetBytes"
vector 176 ZrpTestNetwork.node1.wlan[0].mac.dcf frameSequenceActive:vector ETV
attr autoWarmupFilter false
attr interpolationmode sample-hold
attr recordingmode vector
attr source warmup(count(frameSequenceStarted)-count(frameSequenceFinished))
attr title "frame sequence active"
vector 177 ZrpTestNetwork.node1.wlan[0].mac.dcf datarateSelected:vector ETV
attr interpolationmode none
attr recordingmode vector
attr title "datarates selected"
vector 178 ZrpTestNetwork.node1.wlan[0].mac.rx nav:vector ETV
attr interpolationmode linear
attr recordingmode vector
attr source navChanged
attr title "network allocation vector"
vector 179 ZrpTestNetwork.node1.wlan[0].mac packetSentToUpper:vector(packetBytes) ETV
attr interpolationmode none
attr recordingmode vector(packetBytes)
attr title "packets sent to upper layer, packetBytes"
vector 180 ZrpTestNetwork.node1.wlan[0].mac packetSentToLower:vector(packetBytes) ETV
attr interpolationmode none
attr recordingmode vector(packetBytes)
attr title "packets sent to lower layer, packetBytes"
vector 181 ZrpTestNetwork.node1.wlan[0].mac packetReceivedFromUpper:vector(packetBytes) ETV
attr interpolationmode none
attr recordingmode vector(packetBytes)
attr title "packets received from upper layer, packetBytes"
vector 182 ZrpTestNetwork.node1.wlan[0].mac packetReceivedFromLower:vector(packetBytes) ETV
attr interpolationmode none
attr recordingmode vector(packetBytes)
attr title "packets received from lower layer, packetBytes"
vector 183 ZrpTestNetwork.node1.wlan[0].mac packetDrop:vector(packetBytes) ETV
attr interpolationmode none
attr recordingmode vector(packetBytes)
attr source packetDropped
attr title "packet drops, packetBytes"
vector 184 ZrpTestNetwork.node1.wlan[0].mac packetDropIncorrectlyReceived:vector(packetBytes) ETV
attr interpolationmode none
attr recordingmode vector(packetBytes)
attr source packetDropReasonIsIncorrectlyReceived(packetDropped)
attr title "packet drops: incorrectly received, packetBytes"
vector 185 ZrpTestNetwork.node1.wlan[0].mac packetDropNotAddressedToUs:vector(packetBytes) ETV
attr interpolationmode none
attr recordingmode vector(packetBytes)
attr source packetDropReasonIsNotAddressedToUs(packetDropped)
attr title "packet drops: not addressed to us, packetBytes"
vector 186 ZrpTestNetwork.node1.wlan[0].mac packetDropQueueOverflow:vector(packetBytes) ETV
attr interpolationmode none
attr recordingmode vector(packetBytes)
attr source packetDropReasonIsQueueOverflow(packetDropped)
attr title "packet drops: queue overflow, packetBytes"
vector 187 ZrpTestNetwork.node1.wlan[0].mac packetDropRetryLimitReached:vector(packetBytes) ETV
attr interpolationmode none
attr recordingmode vector(packetBytes)
attr source packetDropReasonIsRetryLimitReached(packetDropped)
attr title "packet drops: retry limit reached, packetBytes"
vector 188 ZrpTestNetwork.node1.wlan[0].mac packetDropDuplicateDetected:vector(packetBytes) ETV
attr interpolationmode none
attr recordingmode vector(packetBytes)
attr source packetDropReasonIsDuplicateDetected(packetDropped)
attr title "packet drops: duplicate detected, packetBytes"
vector 189 ZrpTestNetwork.node1.wlan[0].mac packetDropOther:vector(packetBytes) ETV
attr interpolationmode none
attr recordingmode vector(packetBytes)
attr source packetDropReasonIsOther(packetDropped)
attr title "packet drops: other, packetBytes"
vector 190 ZrpTestNetwork.node1.wlan[0].radio radioMode:vector ETV
attr interpolationmode sample-hold
attr recordingmode vector
attr source radioModeChanged
attr title "Radio mode"
vector 191 ZrpTestNetwork.node1.wlan[0].radio receptionState:vector ETV
attr interpolationmode sample-hold
attr recordingmode vector
attr source receptionStateChanged
attr title "Radio reception state"
vector 192 ZrpTestNetwork.node1.wlan[0].radio transmissionState:vector ETV
attr interpolationmode sample-hold
attr recordingmode vector
attr source transmissionStateChanged
attr title "Radio transmission state"
vector 193 ZrpTestNetwork.node1.wlan[0].radio radioChannel:vector ETV
attr interpolationmode sample-hold
attr recordingmode vector
attr source radioChannelChanged
attr title "Radio channel"
vector 194 ZrpTestNetwork.node1.wlan[0] packetDropInterfaceDown:vector(packetBytes) ETV
attr interpolationmode none
attr recordingmode vector(packetBytes)
attr source packetDropReasonIsInterfaceDown(packetDropped)
attr title "packet drops: interface down, packetBytes"
vector 195 ZrpTestNetwork.node1.wlan[0] packetDropNoCarrier:vector(packetBytes) ETV
attr interpolationmode none
attr recordingmode vector(packetBytes)
attr source packetDropReasonIsNoCarrier(packetDropped)
attr title "packet drops: no carrier, packetBytes"
vector 196 ZrpTestNetwork.node1.ipv4.ip packetDropAddressResolutionFailed:vector(packetBytes) ETV
attr interpolationmode none
attr recordingmode vector(packetBytes)
attr source packetDropReasonIsAddressResolutionFailed(packetDropped)
attr title "packet drop: address resolution failed, packetBytes"
vector 197 ZrpTestNetwork.node1.ipv4.ip packetDropHopLimitReached:vector(packetBytes) ETV
attr interpolationmode none
attr recordingmode vector(packetBytes)
attr source packetDropReasonIsHopLimitReached(packetDropped)
attr title "packet drop: hop limit reached, packetBytes"
vector 198 ZrpTestNetwork.node1.ipv4.ip packetDropForwardingDisabled:vector(packetBytes) ETV
attr interpolationmode none
attr recordingmode vector(packetBytes)
attr source packetDropReasonIsForwardingDisabled(packetDropped)
attr title "packet drop: forwarding disabled, packetBytes"
vector 199 ZrpTestNetwork.node1.ipv4.ip packetDropNoInterfaceFound:vector(packetBytes) ETV
attr interpolationmode none
attr recordingmode vector(packetBytes)
attr source packetDropReasonIsNoInterfaceFound(packetDropped)
attr title "packet drop: no interface found, packetBytes"
vector 200 ZrpTestNetwork.node1.ipv4.ip packetDropNoRouteFound:vector(packetBytes) ETV
attr interpolationmode none
attr recordingmode vector(packetBytes)
attr source packetDropReasonIsNoRouteFound(packetDropped)
attr title "packet drop: no route found, packetBytes"
vector 201 ZrpTestNetwork.node1.ipv4.ip packetDropUndefined:vector(packetBytes) ETV
attr interpolationmode none
attr recordingmode vector(packetBytes)
attr source packetDropReasonIsUndefined(packetDropped)
attr title "packet drop: undefined, packetBytes"
vector 202 ZrpTestNetwork.node1.udp packetSent:vector(packetBytes) ETV
attr interpolationmode none
attr recordingmode vector(packetBytes)
attr source packetSent
attr title "packets sent, packetBytes"
vector 203 ZrpTestNetwork.node1.udp packetReceived:vector(packetBytes) ETV
attr interpolationmode none
attr recordingmode vector(packetBytes)
attr source packetReceived
attr title "packets received, packetBytes"
vector 204 ZrpTestNetwork.node1.udp passedUpPk:vector(count) ETV
attr interpolationmode none
attr recordingmode vector(count)
attr source packetSentToUpper
attr title "packets passed up, count"
vector 205 ZrpTestNetwork.node1.udp droppedPkWrongPort:vector(count) ETV
attr interpolationmode none
attr recordingmode vector(count)
attr source packetDropReasonIsNoPortFound(packetDropped)
attr title "packets dropped (wrong port), count"
vector 206 ZrpTestNetwork.node1.udp droppedPkBadChecksum:vector(count) ETV
attr interpolationmode none
attr recordingmode vector(count)
attr source packetDropReasonIsIncorrectlyReceived(packetDropped)
attr title "packets dropped (checksum error), count"
vector 207 ZrpTestNetwork.node2.lo[0].lo rcvdPkFromHl:vector(packetBytes) ETV
attr interpolationmode none
attr recordingmode vector(packetBytes)
attr source packetReceivedFromUpper
attr title "packets received from higher layer, packetBytes"
vector 208 ZrpTestNetwork.node2.lo[0].lo passedUpPk:vector(packetBytes) ETV
attr interpolationmode none
attr recordingmode vector(packetBytes)
attr source packetSentToUpper
attr title "packets passed to higher layer, packetBytes"
vector 209 ZrpTestNetwork.node2.lo[0] packetDropInterfaceDown:vector(packetBytes) ETV
attr interpolationmode none
attr recordingmode vector(packetBytes)
attr source packetDropReasonIsInterfaceDown(packetDropped)
attr title "packet drops: interface down, packetBytes"
vector 210 ZrpTestNetwork.node2.lo[0] packetDropNoCarrier:vector(packetBytes) ETV
attr interpolationmode none
attr recordingmode vector(packetBytes)
attr source packetDropReasonIsNoCarrier(packetDropped)
attr title "packet drops: no carrier, packetBytes"
vector 211 ZrpTestNetwork.node2.wlan[0].mac.dcf.channelAccess.pendingQueue queueLength:vector ETV
attr autoWarmupFilter false
attr interpolationmode sample-hold
attr recordingmode vector
attr source "warmup(atomic(constant0(packetPushEnded) + count(packetPushStarted) - count(packetPulled) - count(packetRemoved) - count(packetDropped)))"
attr title "queue length"
attr unit pk
vector 212 ZrpTestNetwork.node2.wlan[0].mac.dcf.channelAccess.pendingQueue queueBitLength:vector ETV
attr autoWarmupFilter false
attr interpolationmode sample-hold
attr recordingmode vector
attr source "warmup(atomic(constant0(packetPushEnded) + sum(packetLength(packetPushStarted)) - sum(packetLength(packetPulled)) - sum(packetLength(packetRemoved)) - sum(packetLength(packetDropped))))"
attr title "queue bit length"
attr unit b
vector 213 ZrpTestNetwork.node2.wlan[0].mac.dcf.channelAccess.pendingQueue queueingTime:vector ETV
attr interpolationmode none
attr recordingmode vector
attr source queueingTime(packetPulled)
attr title "queueing times"
attr unit s
vector 214 ZrpTestNetwork.node2.wlan[0].mac.dcf.channelAccess.pendingQueue incomingPacketLengths:vector ETV
attr interpolationmode none
attr recordingmode vector
attr source packetLength(packetPushStarted)
attr title "incoming packet lengths"
attr unit b
vector 215 ZrpTestNetwork.node2.wlan[0].mac.dcf.channelAccess.pendingQueue incomingDataRate:vector ETV
attr interpolationmode linear
attr recordingmode vector
attr source throughput(packetPushStarted)
attr title "incoming datarate"
attr unit bps
vector 216 ZrpTestNetwork.node2.wlan[0].mac.dcf.channelAccess.pendingQueue outgoingPacketLengths:vector ETV
attr interpolationmode none
attr recordingmode vector
attr source packetLength(packetPulled)
attr title "outgoing packet lengths"
attr unit b
vector 217 ZrpTestNetwork.node2.wlan[0].mac.dcf.channelAccess.pendingQueue outgoingDataRate:vector ETV
attr interpolationmode linear
attr recordingmode vector
attr source throughput(packetPulled)
attr title "outgoing datarate"
attr unit bps
vector 218 ZrpTestNetwork.node2.wlan[0].mac.dcf.channelAccess.pendingQueue droppedPacketLengthsQueueOverflow:vector ETV
attr interpolationmode none
attr recordingmode vector
attr source packetLength(packetDropReasonIsQueueOverflow(packetDropped))
attr title "dropped packet lengths: queue overflow"
attr unit b
vector 219 ZrpTestNetwork.node2.wlan[0].mac.dcf.channelAccess.pendingQueue flowQueueingTime:vector ETV
attr interpolationmode none
attr recordingmode vector
attr source queueingTime(demuxFlow(packetPulled))
attr title "flow queueing times"
attr unit s
vector 220 ZrpTestNetwork.node2.wlan[0].mac.dcf.channelAccess.pendingQueue flowIncomingDataRate:vector ETV
attr interpolationmode linear
attr recordingmode vector
attr source throughput(flowPacketLength(demuxFlow(packetPushStarted)))
attr title "flow specific incoming data rate"
attr unit bps
vector 221 ZrpTestNetwork.node2.wlan[0].mac.dcf.channelAccess.pendingQueue flowOutgoingDataRate:vector ETV
attr interpolationmode linear
attr recordingmode vector
attr source throughput(flowPacketLength(demuxFlow(packetPulled)))
attr title "flow specific outgoing data rate"
attr unit bps
vector 222 ZrpTestNetwork.node2.wlan[0].mac.dcf.channelAccess.inProgressFrames queueingTime:vector ETV
attr interpolationmode none
attr recordingmode vector
attr source queueingTime(packetDequeued)
attr title "queueing times"
vector 223 ZrpTestNetwork.node2.wlan[0].mac.dcf.channelAccess.inProgressFrames queueLength:vector ETV
attr autoWarmupFilter false
attr interpolationmode sample-hold
attr recordingmode vector
attr source "warmup(count(packetEnqueued) - count(packetDequeued))"
attr title "queue length"
vector 224 ZrpTestNetwork.node2.wlan[0].mac.dcf.channelAccess.contention backoffPeriodGenerated:vector ETV
attr interpolationmode none
attr recordingmode vector
attr title "backoff periods"
vector 225 ZrpTestNetwork.node2.wlan[0].mac.dcf.channelAccess.contention backoffActive:vector ETV
attr autoWarmupFilter false
attr interpolationmode sample-hold
attr recordingmode vector
attr source warmup(count(backoffStarted)-count(backoffStopped))
attr title "backoff active"
vector 226 ZrpTestNetwork.node2.wlan[0].mac.dcf.channelAccess.contention stateChanged:vector ETV
attr enum IDLE,DEFER,IFS_AND_BACKOFF
attr interpolationmode none
attr recordingmode vector
attr title "contention state changed"
attr type enum
vector 227 ZrpTestNetwork.node2.wlan[0].mac.dcf.recipientMacDataService packetDropDuplicateDetected:vector(packetBytes) ETV
attr interpolationmode none
attr recordingmode vector(packetBytes)
attr source packetDropReasonIsDuplicateDetected(packetDropped)
attr title "packet drops: duplicate detected, packetBytes"
vector 228 ZrpTestNetwork.node2.wlan[0].mac.dcf.recoveryProcedure contentionWindowChanged:vector ETV
attr interpolationmode sample-hold
attr recordingmode vector
attr title "contention window"
vector 229 ZrpTestNetwork.node2.wlan[0].mac.dcf packetSentToPeer:vector(packetBytes) ETV
attr interpolationmode none
attr recordingmode vector(packetBytes)
attr title "packets sent, packetBytes"
vector 230 ZrpTestNetwork.node2.wlan[0].mac.dcf packetSentToPeerUnicast:vector(packetBytes) ETV
attr interpolationmode none
attr recordingmode vector(packetBytes)
attr source ieee80211Unicast(packetSentToPeer)
attr title "packets sent: unicast, packetBytes"
vector 231 ZrpTestNetwork.node2.wlan[0].mac.dcf packetSentToPeerMulticast:vector(packetBytes) ETV
attr interpolationmode none
attr recordingmode vector(packetBytes)
attr source ieee80211Multicast(packetSentToPeer)
attr title "packets sent: multicast, packetBytes"
vector 232 ZrpTestNetwork.node2.wlan[0].mac.dcf packetSentToPeerBroadcast:vector(packetBytes) ETV
attr interpolationmode none
attr recordingmode vector(packetBytes)
attr source ieee80211Broadcast(packetSentToPeer)
attr title "packets sent: broadcast , packetBytes"
vector 233 ZrpTestNetwork.node2.wlan[0].mac.dcf packetSentToPeerWithRetry:vector(packetBytes) ETV
attr interpolationmode none
attr recordingmode vector(packetBytes)
attr source ieee80211Retry(packetSentToPeer)
attr title "packets sent: with retry, packetBytes"
vector 234 ZrpTestNetwork.node2.wlan[0].mac.dcf packetSentToPeerWithoutRetry:vector(packetBytes) ETV
attr interpolationmode none
attr recordingmode vector(packetBytes)
attr source ieee80211NotRetry(packetSentToPeer)
attr title "packets sent: without retry, packetBytes"
vector 235 ZrpTestNetwork.node2.wlan[0].mac.dcf packetReceivedFromPeer:vector(packetBytes) ETV
attr interpolationmode none
attr recordingmode vector(packetBytes)
attr title "packets received, packetBytes"
vector 236 ZrpTestNetwork.node2.wlan[0].mac.dcf packetReceivedFromPeerUnicast:vector(packetBytes) ETV
attr interpolationmode none
attr recordingmode vector(packetBytes)
attr source ieee80211Unicast(packetReceivedFromPeer)
attr title "packets received: unicast, packetBytes"
vector 237 ZrpTestNetwork.node2.wlan[0].mac.dcf packetReceivedFromPeerMulticast:vector(packetBytes) ETV
attr interpolationmode none
attr recordingmode vector(packetBytes)
attr source ieee80211Multicast(packetReceivedFromPeer)
attr title "packets received: multicast, packetBytes"
vector 238 ZrpTestNetwork.node2.wlan[0].mac.dcf packetReceivedFromPeerBroadcast:vector(packetBytes) ETV
attr interpolationmode none
attr recordingmode vector(packetBytes)
attr source ieee80211Broadcast(packetReceivedFromPeer)
attr title "packets received: broadcast, packetBytes"
vector 239 ZrpTestNetwork.node2.wlan[0].mac.dcf packetReceivedFromPeerWithRetry:vector(packetBytes) ETV
attr interpolationmode none
attr recordingmode vector(packetBytes)
attr source ieee80211Retry(packetReceivedFromPeer)
attr title "packets received: with retry, packetBytes"
vector 240 ZrpTestNetwork.node2.wlan[0].mac.dcf packetReceivedFromPeerWithoutRetry:vector(packetBytes) ETV
attr interpolationmode none
attr recordingmode vector(packetBytes)
attr source ieee80211NotRetry(packetReceivedFromPeer)
attr title "packets received: without retry, packetBytes"
vector 241 ZrpTestNetwork.node2.wlan[0].mac.dcf packetDrop:vector(packetBytes) ETV
attr interpolationmode none
attr recordingmode vector(packetBytes)
attr source packetDropped
attr title "packet drops, packetBytes"
vector 242 ZrpTestNetwork.node2.wlan[0].mac.dcf packetDropNotAddressedToUs:vector(packetBytes) ETV
attr interpolationmode none
attr recordingmode vector(packetBytes)
attr source packetDropReasonIsNotAddressedToUs(packetDropped)
attr title "packet drops: not addressed to us, packetBytes"
vector 243 ZrpTestNetwork.node2.wlan[0].mac.dcf packetDropQueueOverflow:vector(packetBytes) ETV
attr interpolationmode none
attr recordingmode vector(packetBytes)
attr source packetDropReasonIsQueueOverflow(packetDropped)
attr title "packet drops: queue overflow, packetBytes"
vector 244 ZrpTestNetwork.node2.wlan[0].mac.dcf packetDropRetryLimitReached:vector(packetBytes) ETV
attr interpolationmode none
attr recordingmode vector(packetBytes)
attr source packetDropReasonIsRetryLimitReached(packetDropped)
attr title "packet drops: retry limit reached, packetBytes"
vector 245 ZrpTestNetwork.node2.wlan[0].mac.dcf frameSequenceActive:vector ETV
attr autoWarmupFilter false
attr interpolationmode sample-hold
attr recordingmode vector
attr source warmup(count(frameSequenceStarted)-count(frameSequenceFinished))
attr title "frame sequence active"
vector 246 ZrpTestNetwork.node2.wlan[0].mac.dcf datarateSelected:vector ETV
attr interpolationmode none
attr recordingmode vector
attr title "datarates selected"
vector 247 ZrpTestNetwork.node2.wlan[0].mac.rx nav:vector ETV
attr interpolationmode linear
attr recordingmode vector
attr source navChanged
attr title "network allocation vector"
vector 248 ZrpTestNetwork.node2.wlan[0].mac packetSentToUpper:vector(packetBytes) ETV
attr interpolationmode none
attr recordingmode vector(packetBytes)
attr title "packets sent to upper layer, packetBytes"
vector 249 ZrpTestNetwork.node2.wlan[0].mac packetSentToLower:vector(packetBytes) ETV
attr interpolationmode none
attr recordingmode vector(packetBytes)
attr title "packets sent to lower layer, packetBytes"
vector 250 ZrpTestNetwork.node2.wlan[0].mac packetReceivedFromUpper:vector(packetBytes) ETV
attr interpolationmode none
attr recordingmode vector(packetBytes)
attr title "packets received from upper layer, packetBytes"
vector 251 ZrpTestNetwork.node2.wlan[0].mac packetReceivedFromLower:vector(packetBytes) ETV
attr interpolationmode none
attr recordingmode vector(packetBytes)
attr title "packets received from lower layer, packetBytes"
vector 252 ZrpTestNetwork.node2.wlan[0].mac packetDrop:vector(packetBytes) ETV
attr interpolationmode none
attr recordingmode vector(packetBytes)
attr source packetDropped
attr title "packet drops, packetBytes"
vector 253 ZrpTestNetwork.node2.wlan[0].mac packetDropIncorrectlyReceived:vector(packetBytes) ETV
attr interpolationmode none
attr recordingmode vector(packetBytes)
attr source packetDropReasonIsIncorrectlyReceived(packetDropped)
attr title "packet drops: incorrectly received, packetBytes"
vector 254 ZrpTestNetwork.node2.wlan[0].mac packetDropNotAddressedToUs:vector(packetBytes) ETV
attr interpolationmode none
attr recordingmode vector(packetBytes)
attr source packetDropReasonIsNotAddressedToUs(packetDropped)
attr title "packet drops: not addressed to us, packetBytes"
vector 255 ZrpTestNetwork.node2.wlan[0].mac packetDropQueueOverflow:vector(packetBytes) ETV
attr interpolationmode none
attr recordingmode vector(packetBytes)
attr source packetDropReasonIsQueueOverflow(packetDropped)
attr title "packet drops: queue overflow, packetBytes"
vector 256 ZrpTestNetwork.node2.wlan[0].mac packetDropRetryLimitReached:vector(packetBytes) ETV
attr interpolationmode none
attr recordingmode vector(packetBytes)
attr source packetDropReasonIsRetryLimitReached(packetDropped)
attr title "packet drops: retry limit reached, packetBytes"
vector 257 ZrpTestNetwork.node2.wlan[0].mac packetDropDuplicateDetected:vector(packetBytes) ETV
attr interpolationmode none
attr recordingmode vector(packetBytes)
attr source packetDropReasonIsDuplicateDetected(packetDropped)
attr title "packet drops: duplicate detected, packetBytes"
vector 258 ZrpTestNetwork.node2.wlan[0].mac packetDropOther:vector(packetBytes) ETV
attr interpolationmode none
attr recordingmode vector(packetBytes)
attr source packetDropReasonIsOther(packetDropped)
attr title "packet drops: other, packetBytes"
vector 259 ZrpTestNetwork.node2.wlan[0].radio radioMode:vector ETV
attr interpolationmode sample-hold
attr recordingmode vector
attr source radioModeChanged
attr title "Radio mode"
vector 260 ZrpTestNetwork.node2.wlan[0].radio receptionState:vector ETV
attr interpolationmode sample-hold
attr recordingmode vector
attr source receptionStateChanged
attr title "Radio reception state"
vector 261 ZrpTestNetwork.node2.wlan[0].radio transmissionState:vector ETV
attr interpolationmode sample-hold
attr recordingmode vector
attr source transmissionStateChanged
attr title "Radio transmission state"
vector 262 ZrpTestNetwork.node2.wlan[0].radio radioChannel:vector ETV
attr interpolationmode sample-hold
attr recordingmode vector
attr source radioChannelChanged
attr title "Radio channel"
vector 263 ZrpTestNetwork.node2.wlan[0] packetDropInterfaceDown:vector(packetBytes) ETV
attr interpolationmode none
attr recordingmode vector(packetBytes)
attr source packetDropReasonIsInterfaceDown(packetDropped)
attr title "packet drops: interface down, packetBytes"
vector 264 ZrpTestNetwork.node2.wlan[0] packetDropNoCarrier:vector(packetBytes) ETV
attr interpolationmode none
attr recordingmode vector(packetBytes)
attr source packetDropReasonIsNoCarrier(packetDropped)
attr title "packet drops: no carrier, packetBytes"
vector 265 ZrpTestNetwork.node2.ipv4.ip packetDropAddressResolutionFailed:vector(packetBytes) ETV
attr interpolationmode none
attr recordingmode vector(packetBytes)
attr source packetDropReasonIsAddressResolutionFailed(packetDropped)
attr title "packet drop: address resolution failed, packetBytes"
vector 266 ZrpTestNetwork.node2.ipv4.ip packetDropHopLimitReached:vector(packetBytes) ETV
attr interpolationmode none
attr recordingmode vector(packetBytes)
attr source packetDropReasonIsHopLimitReached(packetDropped)
attr title "packet drop: hop limit reached, packetBytes"
vector 267 ZrpTestNetwork.node2.ipv4.ip packetDropForwardingDisabled:vector(packetBytes) ETV
attr interpolationmode none
attr recordingmode vector(packetBytes)
attr source packetDropReasonIsForwardingDisabled(packetDropped)
attr title "packet drop: forwarding disabled, packetBytes"
vector 268 ZrpTestNetwork.node2.ipv4.ip packetDropNoInterfaceFound:vector(packetBytes) ETV
attr interpolationmode none
attr recordingmode vector(packetBytes)
attr source packetDropReasonIsNoInterfaceFound(packetDropped)
attr title "packet drop: no interface found, packetBytes"
vector 269 ZrpTestNetwork.node2.ipv4.ip packetDropNoRouteFound:vector(packetBytes) ETV
attr interpolationmode none
attr recordingmode vector(packetBytes)
attr source packetDropReasonIsNoRouteFound(packetDropped)
attr title "packet drop: no route found, packetBytes"
vector 270 ZrpTestNetwork.node2.ipv4.ip packetDropUndefined:vector(packetBytes) ETV
attr interpolationmode none
attr recordingmode vector(packetBytes)
attr source packetDropReasonIsUndefined(packetDropped)
attr title "packet drop: undefined, packetBytes"
vector 271 ZrpTestNetwork.node2.udp packetSent:vector(packetBytes) ETV
attr interpolationmode none
attr recordingmode vector(packetBytes)
attr source packetSent
attr title "packets sent, packetBytes"
vector 272 ZrpTestNetwork.node2.udp packetReceived:vector(packetBytes) ETV
attr interpolationmode none
attr recordingmode vector(packetBytes)
attr source packetReceived
attr title "packets received, packetBytes"
vector 273 ZrpTestNetwork.node2.udp passedUpPk:vector(count) ETV
attr interpolationmode none
attr recordingmode vector(count)
attr source packetSentToUpper
attr title "packets passed up, count"
vector 274 ZrpTestNetwork.node2.udp droppedPkWrongPort:vector(count) ETV
attr interpolationmode none
attr recordingmode vector(count)
attr source packetDropReasonIsNoPortFound(packetDropped)
attr title "packets dropped (wrong port), count"
vector 275 ZrpTestNetwork.node2.udp droppedPkBadChecksum:vector(count) ETV
attr interpolationmode none
attr recordingmode vector(count)
attr source packetDropReasonIsIncorrectlyReceived(packetDropped)
attr title "packets dropped (checksum error), count"
vector 276 ZrpTestNetwork.node3.lo[0].lo rcvdPkFromHl:vector(packetBytes) ETV
attr interpolationmode none
attr recordingmode vector(packetBytes)
attr source packetReceivedFromUpper
attr title "packets received from higher layer, packetBytes"
vector 277 ZrpTestNetwork.node3.lo[0].lo passedUpPk:vector(packetBytes) ETV
attr interpolationmode none
attr recordingmode vector(packetBytes)
attr source packetSentToUpper
attr title "packets passed to higher layer, packetBytes"
vector 278 ZrpTestNetwork.node3.lo[0] packetDropInterfaceDown:vector(packetBytes) ETV
attr interpolationmode none
attr recordingmode vector(packetBytes)
attr source packetDropReasonIsInterfaceDown(packetDropped)
attr title "packet drops: interface down, packetBytes"
vector 279 ZrpTestNetwork.node3.lo[0] packetDropNoCarrier:vector(packetBytes) ETV
attr interpolationmode none
attr recordingmode vector(packetBytes)
attr source packetDropReasonIsNoCarrier(packetDropped)
attr title "packet drops: no carrier, packetBytes"
vector 280 ZrpTestNetwork.node3.wlan[0].mac.dcf.channelAccess.pendingQueue queueLength:vector ETV
attr autoWarmupFilter false
attr interpolationmode sample-hold
attr recordingmode vector
attr source "warmup(atomic(constant0(packetPushEnded) + count(packetPushStarted) - count(packetPulled) - count(packetRemoved) - count(packetDropped)))"
attr title "queue length"
attr unit pk
vector 281 ZrpTestNetwork.node3.wlan[0].mac.dcf.channelAccess.pendingQueue queueBitLength:vector ETV
attr autoWarmupFilter false
attr interpolationmode sample-hold
attr recordingmode vector
attr source "warmup(atomic(constant0(packetPushEnded) + sum(packetLength(packetPushStarted)) - sum(packetLength(packetPulled)) - sum(packetLength(packetRemoved)) - sum(packetLength(packetDropped))))"
attr title "queue bit length"
attr unit b
vector 282 ZrpTestNetwork.node3.wlan[0].mac.dcf.channelAccess.pendingQueue queueingTime:vector ETV
attr interpolationmode none
attr recordingmode vector
attr source queueingTime(packetPulled)
attr title "queueing times"
attr unit s
vector 283 ZrpTestNetwork.node3.wlan[0].mac.dcf.channelAccess.pendingQueue incomingPacketLengths:vector ETV
attr interpolationmode none
attr recordingmode vector
attr source packetLength(packetPushStarted)
attr title "incoming packet lengths"
attr unit b
vector 284 ZrpTestNetwork.node3.wlan[0].mac.dcf.channelAccess.pendingQueue incomingDataRate:vector ETV
attr interpolationmode linear
attr recordingmode vector
attr source throughput(packetPushStarted)
attr title "incoming datarate"
attr unit bps
vector 285 ZrpTestNetwork.node3.wlan[0].mac.dcf.channelAccess.pendingQueue outgoingPacketLengths:vector ETV
attr interpolationmode none
attr recordingmode vector
attr source packetLength(packetPulled)
attr title "outgoing packet lengths"
attr unit b
vector 286 ZrpTestNetwork.node3.wlan[0].mac.dcf.channelAccess.pendingQueue outgoingDataRate:vector ETV
attr interpolationmode linear
attr recordingmode vector
attr source throughput(packetPulled)
attr title "outgoing datarate"
attr unit bps
vector 287 ZrpTestNetwork.node3.wlan[0].mac.dcf.channelAccess.pendingQueue droppedPacketLengthsQueueOverflow:vector ETV
attr interpolationmode none
attr recordingmode vector
attr source packetLength(packetDropReasonIsQueueOverflow(packetDropped))
attr title "dropped packet lengths: queue overflow"
attr unit b
vector 288 ZrpTestNetwork.node3.wlan[0].mac.dcf.channelAccess.pendingQueue flowQueueingTime:vector ETV
attr interpolationmode none
attr recordingmode vector
attr source queueingTime(demuxFlow(packetPulled))
attr title "flow queueing times"
attr unit s
vector 289 ZrpTestNetwork.node3.wlan[0].mac.dcf.channelAccess.pendingQueue flowIncomingDataRate:vector ETV
attr interpolationmode linear
attr recordingmode vector
attr source throughput(flowPacketLength(demuxFlow(packetPushStarted)))
attr title "flow specific incoming data rate"
attr unit bps
vector 290 ZrpTestNetwork.node3.wlan[0].mac.dcf.channelAccess.pendingQueue flowOutgoingDataRate:vector ETV
attr interpolationmode linear
attr recordingmode vector
attr source throughput(flowPacketLength(demuxFlow(packetPulled)))
attr title "flow specific outgoing data rate"
attr unit bps
vector 291 ZrpTestNetwork.node3.wlan[0].mac.dcf.channelAccess.inProgressFrames queueingTime:vector ETV
attr interpolationmode none
attr recordingmode vector
attr source queueingTime(packetDequeued)
attr title "queueing times"
vector 292 ZrpTestNetwork.node3.wlan[0].mac.dcf.channelAccess.inProgressFrames queueLength:vector ETV
attr autoWarmupFilter false
attr interpolationmode sample-hold
attr recordingmode vector
attr source "warmup(count(packetEnqueued) - count(packetDequeued))"
attr title "queue length"
vector 293 ZrpTestNetwork.node3.wlan[0].mac.dcf.channelAccess.contention backoffPeriodGenerated:vector ETV
attr interpolationmode none
attr recordingmode vector
attr title "backoff periods"
vector 294 ZrpTestNetwork.node3.wlan[0].mac.dcf.channelAccess.contention backoffActive:vector ETV
attr autoWarmupFilter false
attr interpolationmode sample-hold
attr recordingmode vector
attr source warmup(count(backoffStarted)-count(backoffStopped))
attr title "backoff active"
vector 295 ZrpTestNetwork.node3.wlan[0].mac.dcf.channelAccess.contention stateChanged:vector ETV
attr enum IDLE,DEFER,IFS_AND_BACKOFF
attr interpolationmode none
attr recordingmode vector
attr title "contention state changed"
attr type enum
vector 296 ZrpTestNetwork.node3.wlan[0].mac.dcf.recipientMacDataService packetDropDuplicateDetected:vector(packetBytes) ETV
attr interpolationmode none
attr recordingmode vector(packetBytes)
attr source packetDropReasonIsDuplicateDetected(packetDropped)
attr title "packet drops: duplicate detected, packetBytes"
vector 297 ZrpTestNetwork.node3.wlan[0].mac.dcf.recoveryProcedure contentionWindowChanged:vector ETV
attr interpolationmode sample-hold
attr recordingmode vector
attr title "contention window"
vector 298 ZrpTestNetwork.node3.wlan[0].mac.dcf packetSentToPeer:vector(packetBytes) ETV
attr interpolationmode none
attr recordingmode vector(packetBytes)
attr title "packets sent, packetBytes"
vector 299 ZrpTestNetwork.node3.wlan[0].mac.dcf packetSentToPeerUnicast:vector(packetBytes) ETV
attr interpolationmode none
attr recordingmode vector(packetBytes)
attr source ieee80211Unicast(packetSentToPeer)
attr title "packets sent: unicast, packetBytes"
vector 300 ZrpTestNetwork.node3.wlan[0].mac.dcf packetSentToPeerMulticast:vector(packetBytes) ETV
attr interpolationmode none
attr recordingmode vector(packetBytes)
attr source ieee80211Multicast(packetSentToPeer)
attr title "packets sent: multicast, packetBytes"
[...]
480	4413	8.168764630235	49
480	4522	8.324156199078	50
480	4590	8.418101870022	51
480	4619	8.435105974312	52
480	4770	9.007158155291	53
480	4796	9.008767190496	54
480	4975	9.087055563304	55
480	5028	9.092614148931	56
480	5136	10.007158155291	57
480	5162	10.008767190496	58
480	5387	10.087055563304	59
487	2809	5.087001214526	1
487	2811	5.087001214526	0
487	3213	6.087001214526	1
487	3215	6.087001214526	0
487	3527	6.435043625534	1
487	3529	6.435043625534	0
487	3883	7.087001214526	1
487	3885	7.087001214526	0
487	4287	8.087001214526	1
487	4289	8.087001214526	0
487	4601	8.435043625534	1
487	4603	8.435043625534	0
487	4957	9.087001214526	1
487	4959	9.087001214526	0
487	5369	10.087001214526	1
487	5371	10.087001214526	0
488	2809	5.087001214526	560
488	2811	5.087001214526	0
488	3213	6.087001214526	560
488	3215	6.087001214526	0
488	3527	6.435043625534	800
488	3529	6.435043625534	0
488	3883	7.087001214526	560
488	3885	7.087001214526	0
488	4287	8.087001214526	560
488	4289	8.087001214526	0
488	4601	8.435043625534	800
488	4603	8.435043625534	0
488	4957	9.087001214526	560
488	4959	9.087001214526	0
488	5369	10.087001214526	560
488	5371	10.087001214526	0
489	2811	5.087001214526	0
489	3215	6.087001214526	0
489	3529	6.435043625534	0
489	3885	7.087001214526	0
489	4289	8.087001214526	0
489	4603	8.435043625534	0
489	4959	9.087001214526	0
489	5371	10.087001214526	0
490	2809	5.087001214526	560
490	3213	6.087001214526	560
490	3527	6.435043625534	800
490	3883	7.087001214526	560
490	4287	8.087001214526	560
490	4601	8.435043625534	800
490	4957	9.087001214526	560
490	5369	10.087001214526	560
491	2809	4.5	8000
491	2809	4.6	0
491	2809	4.7	0
491	2809	4.8	0
491	2809	4.9	0
491	2809	5	0
491	3213	5.1	5600
491	3213	5.2	0
491	3213	5.3	0
491	3213	5.4	0
491	3213	5.5	0
491	3213	5.6	0
491	3213	5.7	0
491	3213	5.8	0
491	3213	5.9	0
491	3213	6	0
491	3527	6.1	5600
491	3527	6.2	0
491	3527	6.3	0
491	3527	6.4	0
491	3883	6.5	8000
491	3883	6.6	0
491	3883	6.7	0
491	3883	6.8	0
491	3883	6.9	0
491	3883	7	0
491	4287	7.1	5600
491	4287	7.2	0
491	4287	7.3	0
491	4287	7.4	0
491	4287	7.5	0
491	4287	7.6	0
491	4287	7.7	0
491	4287	7.8	0
491	4287	7.9	0
491	4287	8	0
491	4601	8.1	5600
491	4601	8.2	0
491	4601	8.3	0
491	4601	8.4	0
491	4957	8.5	8000
491	4957	8.6	0
491	4957	8.7	0
491	4957	8.8	0
491	4957	8.9	0
491	4957	9	0
491	5369	9.1	5600
491	5369	9.2	0
491	5369	9.3	0
491	5369	9.4	0
491	5369	9.5	0
491	5369	9.6	0
491	5369	9.7	0
491	5369	9.8	0
491	5369	9.9	0
491	5369	10	0
492	2811	5.087001214526	560
492	3215	6.087001214526	560
492	3529	6.435043625534	800
492	3885	7.087001214526	560
492	4289	8.087001214526	560
492	4603	8.435043625534	800
492	4959	9.087001214526	560
492	5371	10.087001214526	560
493	2811	4.5	8000
493	2811	4.6	0
493	2811	4.7	0
493	2811	4.8	0
493	2811	4.9	0
493	2811	5	0
493	3215	5.1	5600
493	3215	5.2	0
493	3215	5.3	0
493	3215	5.4	0
493	3215	5.5	0
493	3215	5.6	0
493	3215	5.7	0
493	3215	5.8	0
493	3215	5.9	0
493	3215	6	0
493	3529	6.1	5600
493	3529	6.2	0
493	3529	6.3	0
493	3529	6.4	0
493	3885	6.5	8000
493	3885	6.6	0
493	3885	6.7	0
493	3885	6.8	0
493	3885	6.9	0
493	3885	7	0
493	4289	7.1	5600
493	4289	7.2	0
493	4289	7.3	0
493	4289	7.4	0
493	4289	7.5	0
493	4289	7.6	0
493	4289	7.7	0
493	4289	7.8	0
493	4289	7.9	0
493	4289	8	0
493	4603	8.1	5600
493	4603	8.2	0
493	4603	8.3	0
493	4603	8.4	0
493	4959	8.5	8000
493	4959	8.6	0
493	4959	8.7	0
493	4959	8.8	0
493	4959	8.9	0
493	4959	9	0
493	5371	9.1	5600
493	5371	9.2	0
493	5371	9.3	0
493	5371	9.4	0
493	5371	9.5	0
493	5371	9.6	0
493	5371	9.7	0
493	5371	9.8	0
493	5371	9.9	0
493	5371	10	0
498	2821	5.087055214526	5.4e-05
498	3225	6.087055214526	5.4e-05
498	3539	6.435105625534	6.2e-05
498	3895	7.087055214526	5.4e-05
498	4299	8.087055214526	5.4e-05
498	4613	8.435105625534	6.2e-05
498	4969	9.087055214526	5.4e-05
498	5381	10.087055214526	5.4e-05
499	2811	5.087001214526	1
499	2821	5.087055214526	0
499	3215	6.087001214526	1
499	3225	6.087055214526	0
499	3529	6.435043625534	1
499	3539	6.435105625534	0
499	3885	7.087001214526	1
499	3895	7.087055214526	0
499	4289	8.087001214526	1
499	4299	8.087055214526	0
499	4603	8.435043625534	1
499	4613	8.435105625534	0
499	4959	9.087001214526	1
499	4969	9.087055214526	0
499	5371	10.087001214526	1
499	5381	10.087055214526	0
500	2809	5.087001214526	20
500	3213	6.087001214526	12
500	3527	6.435043625534	3
500	3883	7.087001214526	17
500	4287	8.087001214526	17
500	4601	8.435043625534	2
500	4957	9.087001214526	0
500	5369	10.087001214526	25
501	2809	5.087001214526	1
501	2810	5.087001214526	0
501	3213	6.087001214526	1
501	3214	6.087001214526	0
501	3527	6.435043625534	1
501	3528	6.435043625534	0
501	3883	7.087001214526	1
501	3884	7.087001214526	0
501	4287	8.087001214526	1
501	4288	8.087001214526	0
501	4601	8.435043625534	1
501	4602	8.435043625534	0
501	4957	9.087001214526	1
501	4958	9.087001214526	0
501	5369	10.087001214526	1
501	5370	10.087001214526	0
502	2637	5.008713316545	0
502	2637	5.008713316545	0
502	2656	5.008767316545	0
502	2656	5.008767316545	0
502	2730	5.077816024467	0
502	2730	5.077816024467	0
502	2744	5.077870024467	0
502	2744	5.077870024467	0
502	2809	5.087001214526	0
502	2809	5.087001214526	2
502	2810	5.087001214526	2
502	2810	5.087001214526	0
502	2812	5.087001214526	0
502	2812	5.087001214526	0
502	2822	5.087055214526	0
502	2822	5.087055214526	0
502	2944	6.007103973352	0
502	2944	6.007103973352	0
502	2958	6.007157973352	0
502	2958	6.007157973352	0
502	2995	6.008713316545	0
502	2995	6.008713316545	0
502	3014	6.008767316545	0
502	3014	6.008767316545	0
502	3088	6.07017573749	0
502	3088	6.07017573749	0
502	3102	6.07024173749	0
502	3102	6.07024173749	0
502	3133	6.077816024467	0
502	3133	6.077816024467	0
502	3147	6.077870024467	0
502	3147	6.077870024467	0
502	3213	6.087001214526	0
502	3213	6.087001214526	2
502	3214	6.087001214526	2
502	3214	6.087001214526	0
502	3216	6.087001214526	0
502	3216	6.087001214526	0
502	3226	6.087055214526	0
502	3226	6.087055214526	0
502	3303	6.168698448296	0
502	3303	6.168698448296	0
502	3317	6.168764448296	0
502	3317	6.168764448296	0
502	3437	6.324086325127	0
502	3437	6.324086325127	0
502	3456	6.324156325127	0
502	3456	6.324156325127	0
502	3527	6.435043625534	0
502	3527	6.435043625534	2
502	3528	6.435043625534	2
502	3528	6.435043625534	0
502	3530	6.435043625534	0
502	3530	6.435043625534	0
502	3540	6.435105625534	0
502	3540	6.435105625534	0
502	3660	7.007103973352	0
502	3660	7.007103973352	0
502	3674	7.007157973352	0
502	3674	7.007157973352	0
502	3711	7.008713316545	0
502	3711	7.008713316545	0
502	3730	7.008767316545	0
502	3730	7.008767316545	0
502	3804	7.077816024467	0
502	3804	7.077816024467	0
502	3818	7.077870024467	0
502	3818	7.077870024467	0
502	3883	7.087001214526	0
502	3883	7.087001214526	2
502	3884	7.087001214526	2
502	3884	7.087001214526	0
502	3886	7.087001214526	0
502	3886	7.087001214526	0
502	3896	7.087055214526	0
502	3896	7.087055214526	0
502	4018	8.007103973352	0
502	4018	8.007103973352	0
502	4032	8.007157973352	0
502	4032	8.007157973352	0
502	4069	8.008713316545	0
502	4069	8.008713316545	0
502	4088	8.008767316545	0
502	4088	8.008767316545	0
502	4162	8.07017573749	0
502	4162	8.07017573749	0
502	4176	8.07024173749	0
502	4176	8.07024173749	0
502	4207	8.077816024467	0
502	4207	8.077816024467	0
502	4221	8.077870024467	0
502	4221	8.077870024467	0
502	4287	8.087001214526	0
502	4287	8.087001214526	2
502	4288	8.087001214526	2
502	4288	8.087001214526	0
502	4290	8.087001214526	0
502	4290	8.087001214526	0
502	4300	8.087055214526	0
502	4300	8.087055214526	0
502	4377	8.168698448296	0
502	4377	8.168698448296	0
502	4391	8.168764448296	0
502	4391	8.168764448296	0
502	4511	8.324086325127	0
502	4511	8.324086325127	0
502	4530	8.324156325127	0
502	4530	8.324156325127	0
502	4601	8.435043625534	0
502	4601	8.435043625534	2
502	4602	8.435043625534	2
502	4602	8.435043625534	0
502	4604	8.435043625534	0
502	4604	8.435043625534	0
502	4614	8.435105625534	0
502	4614	8.435105625534	0
502	4734	9.007103973352	0
502	4734	9.007103973352	0
502	4748	9.007157973352	0
502	4748	9.007157973352	0
502	4785	9.008713316545	0
502	4785	9.008713316545	0
502	4804	9.008767316545	0
502	4804	9.008767316545	0
502	4878	9.077816024467	0
502	4878	9.077816024467	0
502	4892	9.077870024467	0
502	4892	9.077870024467	0
502	4957	9.087001214526	0
502	4957	9.087001214526	2
502	4958	9.087001214526	2
502	4958	9.087001214526	0
502	4960	9.087001214526	0
502	4960	9.087001214526	0
502	4970	9.087055214526	0
502	4970	9.087055214526	0
502	5100	10.007103973352	0
502	5100	10.007103973352	0
502	5114	10.007157973352	0
502	5114	10.007157973352	0
502	5151	10.008713316545	0
502	5151	10.008713316545	0
502	5170	10.008767316545	0
502	5170	10.008767316545	0
502	5244	10.07017573749	0
502	5244	10.07017573749	0
502	5258	10.07024173749	0
502	5258	10.07024173749	0
502	5289	10.077816024467	0
502	5289	10.077816024467	0
502	5303	10.077870024467	0
502	5303	10.077870024467	0
502	5369	10.087001214526	0
502	5369	10.087001214526	2
502	5370	10.087001214526	2
502	5370	10.087001214526	0
502	5372	10.087001214526	0
502	5372	10.087001214526	0
502	5382	10.087055214526	0
502	5382	10.087055214526	0
505	2821	5.087055214526	70
505	3225	6.087055214526	70
505	3539	6.435105625534	100
505	3895	7.087055214526	70
505	4299	8.087055214526	70
505	4613	8.435105625534	100
505	4969	9.087055214526	70
505	5381	10.087055214526	70
507	2821	5.087055214526	70
507	3225	6.087055214526	70
507	3539	6.435105625534	100
507	3895	7.087055214526	70
507	4299	8.087055214526	70
507	4613	8.435105625534	100
507	4969	9.087055214526	70
507	5381	10.087055214526	70
508	2821	5.087055214526	70
508	3225	6.087055214526	70
508	3539	6.435105625534	100
508	3895	7.087055214526	70
508	4299	8.087055214526	70
508	4613	8.435105625534	100
508	4969	9.087055214526	70
508	5381	10.087055214526	70
510	2821	5.087055214526	70
510	3225	6.087055214526	70
510	3539	6.435105625534	100
510	3895	7.087055214526	70
510	4299	8.087055214526	70
510	4613	8.435105625534	100
510	4969	9.087055214526	70
510	5381	10.087055214526	70
511	2657	5.008767316545	70
511	2745	5.077870024467	70
511	2959	6.007157973352	70
511	3015	6.008767316545	70
511	3103	6.07024173749	108
511	3148	6.077870024467	70
511	3318	6.168764448296	116
511	3457	6.324156325127	124
511	3675	7.007157973352	70
511	3731	7.008767316545	70
511	3819	7.077870024467	70
511	4033	8.007157973352	70
511	4089	8.008767316545	70
511	4177	8.07024173749	108
511	4222	8.077870024467	70
511	4392	8.168764448296	116
511	4531	8.324156325127	124
511	4749	9.007157973352	70
511	4805	9.008767316545	70
511	4893	9.077870024467	70
511	5115	10.007157973352	70
511	5171	10.008767316545	70
511	5259	10.07024173749	108
511	5304	10.077870024467	70
513	2657	5.008767316545	70
513	2745	5.077870024467	70
513	2959	6.007157973352	70
513	3015	6.008767316545	70
513	3103	6.07024173749	108
513	3148	6.077870024467	70
513	3318	6.168764448296	116
513	3457	6.324156325127	124
513	3675	7.007157973352	70
513	3731	7.008767316545	70
513	3819	7.077870024467	70
513	4033	8.007157973352	70
513	4089	8.008767316545	70
513	4177	8.07024173749	108
513	4222	8.077870024467	70
513	4392	8.168764448296	116
513	4531	8.324156325127	124
513	4749	9.007157973352	70
513	4805	9.008767316545	70
513	4893	9.077870024467	70
513	5115	10.007157973352	70
513	5171	10.008767316545	70
513	5259	10.07024173749	108
513	5304	10.077870024467	70
514	2657	5.008767316545	70
514	2745	5.077870024467	70
514	2959	6.007157973352	70
514	3015	6.008767316545	70
514	3103	6.07024173749	108
514	3148	6.077870024467	70
514	3318	6.168764448296	116
514	3457	6.324156325127	124
514	3675	7.007157973352	70
514	3731	7.008767316545	70
514	3819	7.077870024467	70
514	4033	8.007157973352	70
514	4089	8.008767316545	70
514	4177	8.07024173749	108
514	4222	8.077870024467	70
514	4392	8.168764448296	116
514	4531	8.324156325127	124
514	4749	9.007157973352	70
514	4805	9.008767316545	70
514	4893	9.077870024467	70
514	5115	10.007157973352	70
514	5171	10.008767316545	70
514	5259	10.07024173749	108
514	5304	10.077870024467	70
516	2657	5.008767316545	70
516	2745	5.077870024467	70
516	2959	6.007157973352	70
516	3015	6.008767316545	70
516	3103	6.07024173749	108
516	3148	6.077870024467	70
516	3318	6.168764448296	116
516	3457	6.324156325127	124
516	3675	7.007157973352	70
516	3731	7.008767316545	70
516	3819	7.077870024467	70
516	4033	8.007157973352	70
516	4089	8.008767316545	70
516	4177	8.07024173749	108
516	4222	8.077870024467	70
516	4392	8.168764448296	116
516	4531	8.324156325127	124
516	4749	9.007157973352	70
516	4805	9.008767316545	70
516	4893	9.077870024467	70
516	5115	10.007157973352	70
516	5171	10.008767316545	70
516	5259	10.07024173749	108
516	5304	10.077870024467	70
521	2811	5.087001214526	1
521	2821	5.087055214526	0
521	3215	6.087001214526	1
521	3225	6.087055214526	0
521	3529	6.435043625534	1
521	3539	6.435105625534	0
521	3885	7.087001214526	1
521	3895	7.087055214526	0
521	4289	8.087001214526	1
521	4299	8.087055214526	0
521	4603	8.435043625534	1
521	4613	8.435105625534	0
521	4959	9.087001214526	1
521	4969	9.087055214526	0
521	5371	10.087001214526	1
521	5381	10.087055214526	0
522	2811	5.087001214526	24000000
522	3215	6.087001214526	24000000
522	3529	6.435043625534	24000000
522	3885	7.087001214526	24000000
522	4289	8.087001214526	24000000
522	4603	8.435043625534	24000000
522	4959	9.087001214526	24000000
522	5371	10.087001214526	24000000
524	2657	5.008767316545	42
524	2745	5.077870024467	42
524	2959	6.007157973352	42
524	3015	6.008767316545	42
524	3103	6.07024173749	80
524	3148	6.077870024467	42
524	3318	6.168764448296	88
524	3457	6.324156325127	96
524	3675	7.007157973352	42
524	3731	7.008767316545	42
524	3819	7.077870024467	42
524	4033	8.007157973352	42
524	4089	8.008767316545	42
524	4177	8.07024173749	80
524	4222	8.077870024467	42
524	4392	8.168764448296	88
524	4531	8.324156325127	96
524	4749	9.007157973352	42
524	4805	9.008767316545	42
524	4893	9.077870024467	42
524	5115	10.007157973352	42
524	5171	10.008767316545	42
524	5259	10.07024173749	80
524	5304	10.077870024467	42
525	2811	5.087001214526	70
525	3215	6.087001214526	70
525	3529	6.435043625534	100
525	3885	7.087001214526	70
525	4289	8.087001214526	70
525	4603	8.435043625534	100
525	4959	9.087001214526	70
525	5371	10.087001214526	70
526	2809	5.087001214526	42
526	3213	6.087001214526	42
526	3527	6.435043625534	72
526	3883	7.087001214526	42
526	4287	8.087001214526	42
526	4601	8.435043625534	72
526	4957	9.087001214526	42
526	5369	10.087001214526	42
527	2657	5.008767316545	70
527	2745	5.077870024467	70
527	2959	6.007157973352	70
527	3015	6.008767316545	70
527	3103	6.07024173749	108
527	3148	6.077870024467	70
527	3318	6.168764448296	116
527	3457	6.324156325127	124
527	3675	7.007157973352	70
527	3731	7.008767316545	70
527	3819	7.077870024467	70
527	4033	8.007157973352	70
527	4089	8.008767316545	70
527	4177	8.07024173749	108
527	4222	8.077870024467	70
527	4392	8.168764448296	116
527	4531	8.324156325127	124
527	4749	9.007157973352	70
527	4805	9.008767316545	70
527	4893	9.077870024467	70
527	5115	10.007157973352	70
527	5171	10.008767316545	70
527	5259	10.07024173749	108
527	5304	10.077870024467	70
535	2812	5.087001214526	3
535	2822	5.087055214526	2
535	3216	6.087001214526	3
535	3226	6.087055214526	2
535	3530	6.435043625534	3
535	3540	6.435105625534	2
535	3886	7.087001214526	3
535	3896	7.087055214526	2
535	4290	8.087001214526	3
535	4300	8.087055214526	2
535	4604	8.435043625534	3
535	4614	8.435105625534	2
535	4960	9.087001214526	3
535	4970	9.087055214526	2
535	5372	10.087001214526	3
535	5382	10.087055214526	2
536	2637	5.008713316545	3
536	2656	5.008767316545	1
536	2730	5.077816024467	3
536	2744	5.077870024467	1
536	2812	5.087001214526	0
536	2822	5.087055214526	1
536	2944	6.007103973352	3
536	2958	6.007157973352	1
536	2995	6.008713316545	3
536	3014	6.008767316545	1
536	3088	6.07017573749	3
536	3102	6.07024173749	1
536	3133	6.077816024467	3
536	3147	6.077870024467	1
536	3216	6.087001214526	0
536	3226	6.087055214526	1
536	3303	6.168698448296	3
536	3317	6.168764448296	1
536	3437	6.324086325127	3
536	3456	6.324156325127	1
536	3530	6.435043625534	0
536	3540	6.435105625534	1
536	3660	7.007103973352	3
536	3674	7.007157973352	1
536	3711	7.008713316545	3
536	3730	7.008767316545	1
536	3804	7.077816024467	3
536	3818	7.077870024467	1
536	3886	7.087001214526	0
536	3896	7.087055214526	1
536	4018	8.007103973352	3
536	4032	8.007157973352	1
536	4069	8.008713316545	3
536	4088	8.008767316545	1
536	4162	8.07017573749	3
536	4176	8.07024173749	1
536	4207	8.077816024467	3
536	4221	8.077870024467	1
536	4290	8.087001214526	0
536	4300	8.087055214526	1
536	4377	8.168698448296	3
536	4391	8.168764448296	1
536	4511	8.324086325127	3
536	4530	8.324156325127	1
536	4604	8.435043625534	0
536	4614	8.435105625534	1
536	4734	9.007103973352	3
536	4748	9.007157973352	1
536	4785	9.008713316545	3
536	4804	9.008767316545	1
536	4878	9.077816024467	3
536	4892	9.077870024467	1
536	4960	9.087001214526	0
536	4970	9.087055214526	1
536	5100	10.007103973352	3
536	5114	10.007157973352	1
536	5151	10.008713316545	3
536	5170	10.008767316545	1
536	5244	10.07017573749	3
536	5258	10.07024173749	1
536	5289	10.077816024467	3
536	5303	10.077870024467	1
536	5372	10.087001214526	0
536	5382	10.087055214526	1
537	2812	5.087001214526	1
537	2813	5.087001214526	2
537	2821	5.087055214526	1
537	2822	5.087055214526	0
537	3216	6.087001214526	1
537	3217	6.087001214526	2
537	3225	6.087055214526	1
537	3226	6.087055214526	0
537	3530	6.435043625534	1
537	3531	6.435043625534	2
537	3539	6.435105625534	1
537	3540	6.435105625534	0
537	3886	7.087001214526	1
537	3887	7.087001214526	2
537	3895	7.087055214526	1
537	3896	7.087055214526	0
537	4290	8.087001214526	1
537	4291	8.087001214526	2
537	4299	8.087055214526	1
537	4300	8.087055214526	0
537	4604	8.435043625534	1
537	4605	8.435043625534	2
537	4613	8.435105625534	1
537	4614	8.435105625534	0
537	4960	9.087001214526	1
537	4961	9.087001214526	2
537	4969	9.087055214526	1
537	4970	9.087055214526	0
537	5372	10.087001214526	1
537	5373	10.087001214526	2
537	5381	10.087055214526	1
537	5382	10.087055214526	0
547	2806	5.087001214526	14
547	3210	6.087001214526	14
547	3524	6.435043625534	44
547	3880	7.087001214526	14
547	4284	8.087001214526	14
547	4598	8.435043625534	44
547	4954	9.087001214526	14
547	5366	10.087001214526	14
548	2660	5.008767316545	14
548	2748	5.077870024467	14
548	2962	6.007157973352	14
548	3018	6.008767316545	14
548	3106	6.07024173749	52
548	3151	6.077870024467	14
548	3321	6.168764448296	60
548	3460	6.324156325127	68
548	3678	7.007157973352	14
548	3734	7.008767316545	14
548	3822	7.077870024467	14
548	4036	8.007157973352	14
548	4092	8.008767316545	14
548	4180	8.07024173749	52
548	4225	8.077870024467	14
548	4395	8.168764448296	60
548	4534	8.324156325127	68
548	4752	9.007157973352	14
548	4808	9.008767316545	14
548	4896	9.077870024467	14
548	5118	10.007157973352	14
548	5174	10.008767316545	14
548	5262	10.07024173749	52
548	5307	10.077870024467	14
549	2660	5.008767316545	23
549	2748	5.077870024467	24
549	2962	6.007157973352	25
549	3018	6.008767316545	26
549	3106	6.07024173749	27
549	3151	6.077870024467	28
549	3321	6.168764448296	29
549	3460	6.324156325127	30
549	3678	7.007157973352	31
549	3734	7.008767316545	32
549	3822	7.077870024467	33
549	4036	8.007157973352	34
549	4092	8.008767316545	35
549	4180	8.07024173749	36
549	4225	8.077870024467	37
549	4395	8.168764448296	38
549	4534	8.324156325127	39
549	4752	9.007157973352	40
549	4808	9.008767316545	41
549	4896	9.077870024467	42
549	5118	10.007157973352	43
549	5174	10.008767316545	44
549	5262	10.07024173749	45
549	5307	10.077870024467	46
8	5414	10.09256000103	6050.1295783099
10	5414	10.09256000103	6050.1295783099
77	5414	10.09256000103	6050.1295783099
79	5414	10.09256000103	6050.1295783099
146	5414	10.09256000103	6050.1295783099
148	5414	10.09256000103	6050.1295783099
215	5414	10.09256000103	6050.1295783099
217	5414	10.09256000103	6050.1295783099
284	5414	10.09256000103	6050.1295783099
286	5414	10.09256000103	6050.1295783099
353	5414	10.09256000103	6050.1295783099
355	5414	10.09256000103	6050.1295783099
422	5414	10.09256000103	15384.615213417
424	5414	10.09256000103	15384.615213417
491	5414	10.09256000103	6050.1295783099
493	5414	10.09256000103	6050.1295783099

